data_image0
_chemical_formula_structural       WMoNbMo3TaMo2TaMo4W2Mo11TaMo7WMo2TaMo10TaMo13TaMo3WMoWMo8WMoWMo18W2Mo2WMo4WMoTaWMo15
_chemical_formula_sum              "W13 Mo106 Nb1 Ta7"
_cell_length_a       12.8
_cell_length_b       12.8
_cell_length_c       12.8
_cell_angle_alpha    90.0
_cell_angle_beta     90.0
_cell_angle_gamma    90.0

_space_group_name_H-M_alt    "P 1"
_space_group_IT_number       1

loop_
  _space_group_symop_operation_xyz
  'x, y, z'

loop_
  _atom_site_type_symbol
  _atom_site_label
  _atom_site_symmetry_multiplicity
  _atom_site_fract_x
  _atom_site_fract_y
  _atom_site_fract_z
  _atom_site_occupancy
  W   W1        1.0  0.0  0.0  0.0  1.0000
  Mo  Mo1       1.0  0.125  0.125  0.125  1.0000
  Nb  Nb1       1.0  0.0  0.0  0.25  1.0000
  Mo  Mo2       1.0  0.125  0.125  0.37500000000000006  1.0000
  Mo  Mo3       1.0  0.0  0.0  0.5  1.0000
  Mo  Mo4       1.0  0.125  0.125  0.625  1.0000
  Ta  Ta1       1.0  0.0  0.0  0.7500000000000001  1.0000
  Mo  Mo5       1.0  0.125  0.125  0.8750000000000001  1.0000
  Mo  Mo6       1.0  0.0  0.25  0.0  1.0000
  Ta  Ta2       1.0  0.125  0.37500000000000006  0.125  1.0000
  Mo  Mo7       1.0  0.0  0.25  0.25  1.0000
  Mo  Mo8       1.0  0.125  0.37500000000000006  0.37500000000000006  1.0000
  Mo  Mo9       1.0  0.0  0.25  0.5  1.0000
  Mo  Mo10      1.0  0.125  0.37500000000000006  0.625  1.0000
  W   W2        1.0  0.0  0.25  0.7500000000000001  1.0000
  W   W3        1.0  0.125  0.37500000000000006  0.8750000000000001  1.0000
  Mo  Mo11      1.0  0.0  0.5  0.0  1.0000
  Mo  Mo12      1.0  0.125  0.625  0.125  1.0000
  Mo  Mo13      1.0  0.0  0.5  0.25  1.0000
  Mo  Mo14      1.0  0.125  0.625  0.37500000000000006  1.0000
  Mo  Mo15      1.0  0.0  0.5  0.5  1.0000
  Mo  Mo16      1.0  0.125  0.625  0.625  1.0000
  Mo  Mo17      1.0  0.0  0.5  0.7500000000000001  1.0000
  Mo  Mo18      1.0  0.125  0.625  0.8750000000000001  1.0000
  Mo  Mo19      1.0  0.0  0.7500000000000001  0.0  1.0000
  Mo  Mo20      1.0  0.125  0.8750000000000001  0.125  1.0000
  Mo  Mo21      1.0  0.0  0.7500000000000001  0.25  1.0000
  Ta  Ta3       1.0  0.125  0.8750000000000001  0.37500000000000006  1.0000
  Mo  Mo22      1.0  0.0  0.7500000000000001  0.5  1.0000
  Mo  Mo23      1.0  0.125  0.8750000000000001  0.625  1.0000
  Mo  Mo24      1.0  0.0  0.7500000000000001  0.7500000000000001  1.0000
  Mo  Mo25      1.0  0.125  0.8750000000000001  0.8750000000000001  1.0000
  Mo  Mo26      1.0  0.25  0.0  0.0  1.0000
  Mo  Mo27      1.0  0.37500000000000006  0.125  0.125  1.0000
  Mo  Mo28      1.0  0.25  0.0  0.25  1.0000
  W   W4        1.0  0.37500000000000006  0.125  0.37500000000000006  1.0000
  Mo  Mo29      1.0  0.25  0.0  0.5  1.0000
  Mo  Mo30      1.0  0.37500000000000006  0.125  0.625  1.0000
  Ta  Ta4       1.0  0.25  0.0  0.7500000000000001  1.0000
  Mo  Mo31      1.0  0.37500000000000006  0.125  0.8750000000000001  1.0000
  Mo  Mo32      1.0  0.25  0.25  0.0  1.0000
  Mo  Mo33      1.0  0.37500000000000006  0.37500000000000006  0.125  1.0000
  Mo  Mo34      1.0  0.25  0.25  0.25  1.0000
  Mo  Mo35      1.0  0.37500000000000006  0.37500000000000006  0.37500000000000006  1.0000
  Mo  Mo36      1.0  0.25  0.25  0.5  1.0000
  Mo  Mo37      1.0  0.37500000000000006  0.37500000000000006  0.625  1.0000
  Mo  Mo38      1.0  0.25  0.25  0.7500000000000001  1.0000
  Mo  Mo39      1.0  0.37500000000000006  0.37500000000000006  0.8750000000000001  1.0000
  Mo  Mo40      1.0  0.25  0.5  0.0  1.0000
  Ta  Ta5       1.0  0.37500000000000006  0.625  0.125  1.0000
  Mo  Mo41      1.0  0.25  0.5  0.25  1.0000
  Mo  Mo42      1.0  0.37500000000000006  0.625  0.37500000000000006  1.0000
  Mo  Mo43      1.0  0.25  0.5  0.5  1.0000
  Mo  Mo44      1.0  0.37500000000000006  0.625  0.625  1.0000
  Mo  Mo45      1.0  0.25  0.5  0.7500000000000001  1.0000
  Mo  Mo46      1.0  0.37500000000000006  0.625  0.8750000000000001  1.0000
  Mo  Mo47      1.0  0.25  0.7500000000000001  0.0  1.0000
  Mo  Mo48      1.0  0.37500000000000006  0.8750000000000001  0.125  1.0000
  Mo  Mo49      1.0  0.25  0.7500000000000001  0.25  1.0000
  Mo  Mo50      1.0  0.37500000000000006  0.8750000000000001  0.37500000000000006  1.0000
  Mo  Mo51      1.0  0.25  0.7500000000000001  0.5  1.0000
  Mo  Mo52      1.0  0.37500000000000006  0.8750000000000001  0.625  1.0000
  Mo  Mo53      1.0  0.25  0.7500000000000001  0.7500000000000001  1.0000
  Ta  Ta6       1.0  0.37500000000000006  0.8750000000000001  0.8750000000000001  1.0000
  Mo  Mo54      1.0  0.5  0.0  0.0  1.0000
  Mo  Mo55      1.0  0.625  0.125  0.125  1.0000
  Mo  Mo56      1.0  0.5  0.0  0.25  1.0000
  W   W5        1.0  0.625  0.125  0.37500000000000006  1.0000
  Mo  Mo57      1.0  0.5  0.0  0.5  1.0000
  W   W6        1.0  0.625  0.125  0.625  1.0000
  Mo  Mo58      1.0  0.5  0.0  0.7500000000000001  1.0000
  Mo  Mo59      1.0  0.625  0.125  0.8750000000000001  1.0000
  Mo  Mo60      1.0  0.5  0.25  0.0  1.0000
  Mo  Mo61      1.0  0.625  0.37500000000000006  0.125  1.0000
  Mo  Mo62      1.0  0.5  0.25  0.25  1.0000
  Mo  Mo63      1.0  0.625  0.37500000000000006  0.37500000000000006  1.0000
  Mo  Mo64      1.0  0.5  0.25  0.5  1.0000
  Mo  Mo65      1.0  0.625  0.37500000000000006  0.625  1.0000
  W   W7        1.0  0.5  0.25  0.7500000000000001  1.0000
  Mo  Mo66      1.0  0.625  0.37500000000000006  0.8750000000000001  1.0000
  W   W8        1.0  0.5  0.5  0.0  1.0000
  Mo  Mo67      1.0  0.625  0.625  0.125  1.0000
  Mo  Mo68      1.0  0.5  0.5  0.25  1.0000
  Mo  Mo69      1.0  0.625  0.625  0.37500000000000006  1.0000
  Mo  Mo70      1.0  0.625  0.625  0.625  1.0000
  Mo  Mo71      1.0  0.5  0.5  0.7500000000000001  1.0000
  Mo  Mo72      1.0  0.625  0.625  0.8750000000000001  1.0000
  Mo  Mo73      1.0  0.5  0.7500000000000001  0.0  1.0000
  Mo  Mo74      1.0  0.625  0.8750000000000001  0.125  1.0000
  Mo  Mo75      1.0  0.5  0.7500000000000001  0.25  1.0000
  Mo  Mo76      1.0  0.625  0.8750000000000001  0.37500000000000006  1.0000
  Mo  Mo77      1.0  0.5  0.7500000000000001  0.5  1.0000
  Mo  Mo78      1.0  0.625  0.8750000000000001  0.625  1.0000
  Mo  Mo79      1.0  0.5  0.7500000000000001  0.7500000000000001  1.0000
  Mo  Mo80      1.0  0.625  0.8750000000000001  0.8750000000000001  1.0000
  Mo  Mo81      1.0  0.7500000000000001  0.0  0.0  1.0000
  Mo  Mo82      1.0  0.8750000000000001  0.125  0.125  1.0000
  Mo  Mo83      1.0  0.7500000000000001  0.0  0.25  1.0000
  Mo  Mo84      1.0  0.8750000000000001  0.125  0.37500000000000006  1.0000
  W   W9        1.0  0.7500000000000001  0.0  0.5  1.0000
  W   W10       1.0  0.8750000000000001  0.125  0.625  1.0000
  Mo  Mo85      1.0  0.7500000000000001  0.0  0.7500000000000001  1.0000
  Mo  Mo86      1.0  0.8750000000000001  0.125  0.8750000000000001  1.0000
  W   W11       1.0  0.7500000000000001  0.25  0.0  1.0000
  Mo  Mo87      1.0  0.8750000000000001  0.37500000000000006  0.125  1.0000
  Mo  Mo88      1.0  0.7500000000000001  0.25  0.25  1.0000
  Mo  Mo89      1.0  0.8750000000000001  0.37500000000000006  0.37500000000000006  1.0000
  Mo  Mo90      1.0  0.7500000000000001  0.25  0.5  1.0000
  W   W12       1.0  0.8750000000000001  0.37500000000000006  0.625  1.0000
  Mo  Mo91      1.0  0.7500000000000001  0.25  0.7500000000000001  1.0000
  Ta  Ta7       1.0  0.8750000000000001  0.37500000000000006  0.8750000000000001  1.0000
  W   W13       1.0  0.7500000000000001  0.5  0.0  1.0000
  Mo  Mo92      1.0  0.8750000000000001  0.625  0.125  1.0000
  Mo  Mo93      1.0  0.7500000000000001  0.5  0.25  1.0000
  Mo  Mo94      1.0  0.8750000000000001  0.625  0.37500000000000006  1.0000
  Mo  Mo95      1.0  0.7500000000000001  0.5  0.5  1.0000
  Mo  Mo96      1.0  0.8750000000000001  0.625  0.625  1.0000
  Mo  Mo97      1.0  0.7500000000000001  0.5  0.7500000000000001  1.0000
  Mo  Mo98      1.0  0.8750000000000001  0.625  0.8750000000000001  1.0000
  Mo  Mo99      1.0  0.7500000000000001  0.7500000000000001  0.0  1.0000
  Mo  Mo100     1.0  0.8750000000000001  0.8750000000000001  0.125  1.0000
  Mo  Mo101     1.0  0.7500000000000001  0.7500000000000001  0.25  1.0000
  Mo  Mo102     1.0  0.8750000000000001  0.8750000000000001  0.37500000000000006  1.0000
  Mo  Mo103     1.0  0.7500000000000001  0.7500000000000001  0.5  1.0000
  Mo  Mo104     1.0  0.8750000000000001  0.8750000000000001  0.625  1.0000
  Mo  Mo105     1.0  0.7500000000000001  0.7500000000000001  0.7500000000000001  1.0000
  Mo  Mo106     1.0  0.8750000000000001  0.8750000000000001  0.8750000000000001  1.0000
