data_image0
_chemical_formula_structural       MoTaMo3NbMo2TaMo2TaMo4Nb3MoNbMoWNbTaNbMoTaMoNbMoTaMoTa2Mo2WNbTaMo3Nb2Mo2Nb2Mo2NbTaMoWNb2MoNb3TaNb2Mo2Nb2Mo2TaNb2MoTaNbMoTaMoNb2MoNb2Mo3TaMo2NbMo5NbTaMoTaMoTa2Mo3NbMoNbMo5TaMoTaMo2Ta2Nb2MoTaMoTa
_chemical_formula_sum              "Mo63 Ta25 Nb36 W3"
_cell_length_a       12.8
_cell_length_b       12.8
_cell_length_c       12.8
_cell_angle_alpha    90.0
_cell_angle_beta     90.0
_cell_angle_gamma    90.0

_space_group_name_H-M_alt    "P 1"
_space_group_IT_number       1

loop_
  _space_group_symop_operation_xyz
  'x, y, z'

loop_
  _atom_site_type_symbol
  _atom_site_label
  _atom_site_symmetry_multiplicity
  _atom_site_fract_x
  _atom_site_fract_y
  _atom_site_fract_z
  _atom_site_occupancy
  Mo  Mo1       1.0  0.9989065656515562  0.0011576221720636898  0.9997614023283599  1.0000
  Ta  Ta1       1.0  0.12426519166114433  0.12730521638562214  0.12499018401633095  1.0000
  Mo  Mo2       1.0  0.9991897145226266  0.0018687321517557888  0.25076431550923006  1.0000
  Mo  Mo3       1.0  0.12436851570198276  0.1255562364630167  0.3748566146481547  1.0000
  Mo  Mo4       1.0  0.9990226509171162  0.002298813456038537  0.5001206950241759  1.0000
  Nb  Nb1       1.0  0.12160499977647066  0.12799351819225357  0.6249900677789055  1.0000
  Mo  Mo5       1.0  0.9988642521923854  0.0016997628567163878  0.7490828656705091  1.0000
  Mo  Mo6       1.0  0.12465037835695164  0.12693501826403508  0.8752586988441264  1.0000
  Ta  Ta2       1.0  0.000988911436732788  0.2571090171780151  0.9979774580872581  1.0000
  Mo  Mo7       1.0  0.1250162311936259  0.3742389486525749  0.12520552575298982  1.0000
  Mo  Mo8       1.0  0.9991797617959779  0.24929364204022425  0.25000747039687965  1.0000
  Ta  Ta3       1.0  0.12513763268357092  0.37124453741219726  0.37319279205565903  1.0000
  Mo  Mo9       1.0  0.9994228474409607  0.24967946070221853  0.5000407316716416  1.0000
  Mo  Mo10      1.0  0.12560528948537664  0.37542159754157195  0.625393331809659  1.0000
  Mo  Mo11      1.0  0.0001804093835098544  0.2515571351870324  0.750199202982018  1.0000
  Mo  Mo12      1.0  0.1257243658014061  0.3750922876166405  0.8724372398596042  1.0000
  Nb  Nb2       1.0  0.9953574187526281  0.4973565937920772  0.9968141240633209  1.0000
  Nb  Nb3       1.0  0.12494556223309063  0.6221360365105398  0.12750428767403527  1.0000
  Nb  Nb4       1.0  0.9981934109109183  0.4977879919874323  0.2470607440109407  1.0000
  Mo  Mo13      1.0  0.1261015484207134  0.6229774048758943  0.3766965771042832  1.0000
  Nb  Nb5       1.0  0.0025079419157800777  0.49826815664738705  0.5036902246121884  1.0000
  Mo  Mo14      1.0  0.12158602885203743  0.6240820434639778  0.6259300601760366  1.0000
  W   W1        1.0  0.0009535783207707254  0.4970667004438553  0.7507554368208585  1.0000
  Nb  Nb6       1.0  0.12475093256993627  0.6228103198855156  0.8710952486123258  1.0000
  Ta  Ta4       1.0  0.9967713237808631  0.7443863078614866  0.00033040247459698886  1.0000
  Nb  Nb7       1.0  0.12302346922591356  0.8783824751067473  0.12547546733219034  1.0000
  Mo  Mo15      1.0  0.9994398053574419  0.7500550024085639  0.24954191497670988  1.0000
  Ta  Ta5       1.0  0.12116907994932002  0.8755801370726941  0.37821455219951533  1.0000
  Mo  Mo16      1.0  0.0003093521713915613  0.74873383784349  0.4998567976988877  1.0000
  Nb  Nb8       1.0  0.12260157461194639  0.8740786518468249  0.6242444478760587  1.0000
  Mo  Mo17      1.0  0.9995596366511399  0.7482829767758169  0.7512057803056699  1.0000
  Ta  Ta6       1.0  0.12211307803142862  0.8786156241708266  0.8735908083323475  1.0000
  Mo  Mo18      1.0  0.24976461177725096  0.9999406824736422  0.9997894218589297  1.0000
  Ta  Ta7       1.0  0.3724201278940262  0.1252889872188981  0.12022791328815606  1.0000
  Ta  Ta8       1.0  0.2513859338968131  0.0024048371309610414  0.2544770219303122  1.0000
  Mo  Mo19      1.0  0.37475453003301906  0.12526340088335225  0.3760146685249937  1.0000
  Mo  Mo20      1.0  0.24963885784007855  0.0001648384970016965  0.500701721657486  1.0000
  W   W2        1.0  0.37673454590108296  0.12711761198813146  0.6240796937888403  1.0000
  Nb  Nb9       1.0  0.24988681794261808  0.0032034873078628048  0.7474146888783052  1.0000
  Ta  Ta9       1.0  0.37314296942028286  0.1281366551429775  0.8742424862383413  1.0000
  Mo  Mo21      1.0  0.24924088921528864  0.2505810295974191  0.999271513924569  1.0000
  Mo  Mo22      1.0  0.3745373434352833  0.3745515258061788  0.12476191289335158  1.0000
  Mo  Mo23      1.0  0.25026877381563817  0.2499549826247767  0.2504385246762977  1.0000
  Nb  Nb10      1.0  0.37597592593258566  0.37530307496791204  0.3779254730243406  1.0000
  Nb  Nb11      1.0  0.2506387735607885  0.24872113432407847  0.5020725840129698  1.0000
  Mo  Mo24      1.0  0.3756864063300326  0.37289301245756573  0.6261977395833058  1.0000
  Mo  Mo25      1.0  0.24926548045751173  0.251752160624066  0.7491143909034835  1.0000
  Nb  Nb12      1.0  0.3757855244308983  0.3745472451194044  0.8700187434289592  1.0000
  Nb  Nb13      1.0  0.24974612081084227  0.49576617569303566  0.9996038252993794  1.0000
  Mo  Mo26      1.0  0.3756288809119854  0.6241268011780614  0.12387025441828098  1.0000
  Mo  Mo27      1.0  0.25017488793617837  0.4983593992526167  0.2529725729487412  1.0000
  Nb  Nb14      1.0  0.3787794159466329  0.6245745764314438  0.3745378046933062  1.0000
  Ta  Ta10      1.0  0.25542905431452023  0.5040030772766682  0.5114378565778817  1.0000
  Mo  Mo28      1.0  0.4968601434365584  0.5024816850774962  0.5041995176769937  1.0000
  W   W3        1.0  0.2510644560484359  0.4997012481861879  0.744689608626844  1.0000
  Nb  Nb15      1.0  0.37917345152622656  0.6225713708770362  0.8717117280679931  1.0000
  Nb  Nb16      1.0  0.25178414735177085  0.749550960990301  0.0005437175099781467  1.0000
  Mo  Mo29      1.0  0.37494349813804595  0.8759640231333738  0.1255401333772196  1.0000
  Nb  Nb17      1.0  0.2516193490208348  0.7495530335458291  0.24988010120059634  1.0000
  Nb  Nb18      1.0  0.37712957052931373  0.8739714421257104  0.3786072294982079  1.0000
  Nb  Nb19      1.0  0.25224779702667277  0.7430843116292752  0.5039959523465142  1.0000
  Ta  Ta11      1.0  0.3786850788989263  0.876577768967441  0.6220775535611875  1.0000
  Nb  Nb20      1.0  0.2556528409935039  0.7409840090822316  0.7424630114297242  1.0000
  Nb  Nb21      1.0  0.3767138719534957  0.8758385178236145  0.87372320501814  1.0000
  Mo  Mo30      1.0  0.5010448868821015  0.00025046789221678416  0.9988077547275541  1.0000
  Mo  Mo31      1.0  0.6251838639668033  0.12527471790988484  0.1246200844296666  1.0000
  Nb  Nb22      1.0  0.5011868881670158  0.9996973997054966  0.24800031432698377  1.0000
  Nb  Nb23      1.0  0.6242232134290466  0.12943403005450027  0.37824085909881244  1.0000
  Mo  Mo32      1.0  0.5008387495770523  0.0013455709454394606  0.5000708416203443  1.0000
  Mo  Mo33      1.0  0.6238286615758903  0.1265101485166082  0.6251863366450666  1.0000
  Ta  Ta12      1.0  0.5059244064986368  9.994073739620618e-05  0.7484039601950786  1.0000
  Nb  Nb24      1.0  0.6269631964751482  0.12772826194819636  0.8782635359575465  1.0000
  Nb  Nb25      1.0  0.5030941612956115  0.2536741574351392  0.0014242808460635135  1.0000
  Mo  Mo34      1.0  0.6271844657509262  0.3749232326136281  0.1251579836809487  1.0000
  Ta  Ta13      1.0  0.5009913741257247  0.25116550647697583  0.2486443941843318  1.0000
  Nb  Nb26      1.0  0.6269695182387086  0.3776370906076776  0.3787571539289763  1.0000
  Mo  Mo35      1.0  0.4997732541335082  0.25084111936388587  0.5005608454809939  1.0000
  Ta  Ta14      1.0  0.6229754318676104  0.3775593229560084  0.6255788968575132  1.0000
  Mo  Mo36      1.0  0.5005178146475969  0.2501210182346616  0.7496570406755548  1.0000
  Nb  Nb27      1.0  0.6290475296131939  0.37815493344105505  0.8707850299875209  1.0000
  Nb  Nb28      1.0  0.5042319866331592  0.5006842692412008  0.9997729545489028  1.0000
  Mo  Mo37      1.0  0.62575673876761  0.6235581854853868  0.1253909336466837  1.0000
  Nb  Nb29      1.0  0.5009647544256489  0.4997116556477605  0.2469489997652137  1.0000
  Nb  Nb30      1.0  0.6246254935947358  0.6233485985577619  0.3802514586081185  1.0000
  Mo  Mo38      1.0  0.6241052520823768  0.6250661683632442  0.6264747613996656  1.0000
  Mo  Mo39      1.0  0.4963142973794779  0.5028931868766116  0.7453193741640894  1.0000
  Mo  Mo40      1.0  0.6245328699350363  0.6238330165758743  0.8710598284731398  1.0000
  Ta  Ta15      1.0  0.5048753908055863  0.7505441424588712  0.0023766367131126597  1.0000
  Mo  Mo41      1.0  0.6261904674493901  0.8762338776590246  0.12465404103754985  1.0000
  Mo  Mo42      1.0  0.5010944309531175  0.7500708826768859  0.25070905392018605  1.0000
  Nb  Nb31      1.0  0.6225486984060408  0.8717290589312204  0.37941005204797484  1.0000
  Mo  Mo43      1.0  0.49752315923691454  0.745525436448349  0.5045787608169192  1.0000
  Mo  Mo44      1.0  0.6246990397487988  0.8715492537683702  0.6248704121874906  1.0000
  Mo  Mo45      1.0  0.4993352417848105  0.7468573992795118  0.7470069873455799  1.0000
  Mo  Mo46      1.0  0.6254587882136187  0.8738695144344277  0.8737204567928297  1.0000
  Mo  Mo47      1.0  0.7497905428677587  0.999681253789945  0.9992480484586562  1.0000
  Nb  Nb32      1.0  0.8747832557585233  0.1281335754949094  0.1245781233150127  1.0000
  Ta  Ta16      1.0  0.7480907113922765  0.002973227489312473  0.2516492288049831  1.0000
  Mo  Mo48      1.0  0.8763457420459425  0.12544182517655372  0.3757030712973259  1.0000
  Ta  Ta17      1.0  0.7499735382316753  0.003599703613403828  0.5028993838429664  1.0000
  Mo  Mo49      1.0  0.8745579656513879  0.12564640928828658  0.6249396217859119  1.0000
  Ta  Ta18      1.0  0.7458621482164867  0.0005036849993256237  0.7459405207747609  1.0000
  Ta  Ta19      1.0  0.8758484754681919  0.12680380756554424  0.8730020695502748  1.0000
  Mo  Mo50      1.0  0.7509859108881517  0.25111625592379894  6.216893962660746e-05  1.0000
  Mo  Mo51      1.0  0.8737253136323508  0.3747740928789126  0.12457090543247104  1.0000
  Mo  Mo52      1.0  0.7501354766982116  0.24986253743777376  0.24975835137707014  1.0000
  Nb  Nb33      1.0  0.8730012313862566  0.3717432627683901  0.37465248792554856  1.0000
  Mo  Mo53      1.0  0.7504250911127751  0.2494235686044856  0.500534565858135  1.0000
  Nb  Nb34      1.0  0.8733972942454844  0.37171490366039295  0.628068785784362  1.0000
  Mo  Mo54      1.0  0.74996747764346  0.24942540300374466  0.7495899195604573  1.0000
  Mo  Mo55      1.0  0.8737932654027082  0.3754457919816709  0.8737863434093147  1.0000
  Mo  Mo56      1.0  0.7500521099710156  0.4995078941921513  0.9996491955360476  1.0000
  Mo  Mo57      1.0  0.8735564518194082  0.6241723802212286  0.1251856553519189  1.0000
  Mo  Mo58      1.0  0.7497047559443819  0.49940445720399773  0.2496718432581553  1.0000
  Ta  Ta20      1.0  0.8738057554169509  0.6247254376801593  0.3771674429121883  1.0000
  Mo  Mo59      1.0  0.7501317248634211  0.4995668155867611  0.5015507204139111  1.0000
  Ta  Ta21      1.0  0.8705631347591004  0.6259901706843568  0.6280088977012593  1.0000
  Mo  Mo60      1.0  0.7504935872068896  0.5006733865702652  0.7504947549992482  1.0000
  Mo  Mo61      1.0  0.8733439909036056  0.6237863901912701  0.8736828554608791  1.0000
  Ta  Ta22      1.0  0.7463728204878107  0.7448257230562648  0.9972678889536211  1.0000
  Ta  Ta23      1.0  0.8759430604453633  0.8780488678723952  0.12389401603450477  1.0000
  Nb  Nb35      1.0  0.7470255292409695  0.7490801275816088  0.2467682395018697  1.0000
  Nb  Nb36      1.0  0.8768170377259599  0.8744975081220563  0.37631158020129285  1.0000
  Mo  Mo62      1.0  0.7485811105809953  0.7508360225921218  0.5004647813991467  1.0000
  Ta  Ta24      1.0  0.8779225022416226  0.8714282282943798  0.6254171120574532  1.0000
  Mo  Mo63      1.0  0.747260567919258  0.7501537658698898  0.7503369347296873  1.0000
  Ta  Ta25      1.0  0.8744668591217652  0.8761370757255571  0.8725524212990421  1.0000
