data_image0
_chemical_formula_structural       TaW2Ta5WTaWTa2WTaW4TaW7Ta2W3TaW3TaW5Ta3WTa2W5TaWTaW3Ta5WTa2W2TaW6Ta2W2TaW3Ta3W3TaWTa2W2TaWTaWTaW2TaWTaW7TaWNbTaW9Ta
_chemical_formula_sum              "Ta47 W79 Nb1"
_cell_length_a       12.8
_cell_length_b       12.8
_cell_length_c       12.8
_cell_angle_alpha    90.0
_cell_angle_beta     90.0
_cell_angle_gamma    90.0

_space_group_name_H-M_alt    "P 1"
_space_group_IT_number       1

loop_
  _space_group_symop_operation_xyz
  'x, y, z'

loop_
  _atom_site_type_symbol
  _atom_site_label
  _atom_site_symmetry_multiplicity
  _atom_site_fract_x
  _atom_site_fract_y
  _atom_site_fract_z
  _atom_site_occupancy
  Ta  Ta1       1.0  0.9993980959190594  0.9970837160018381  0.0016019847960885637  1.0000
  W   W1        1.0  0.12470538856428023  0.12460216867346269  0.12595275421116275  1.0000
  W   W2        1.0  0.9998586782726347  0.9974512144750598  0.2479727531038302  1.0000
  Ta  Ta2       1.0  0.1239171275093978  0.12559208321237797  0.3704350165561873  1.0000
  Ta  Ta3       1.0  0.9978876969635289  0.9967120388710119  0.5002486480830225  1.0000
  Ta  Ta4       1.0  0.12558204873740084  0.12512622793832434  0.6266251157524904  1.0000
  Ta  Ta5       1.0  0.9997640711380564  0.9955599733406283  0.7514819558769614  1.0000
  Ta  Ta6       1.0  0.12650828605241354  0.1271680054210171  0.8782476993633127  1.0000
  W   W3        1.0  0.9999078656327127  0.25140114057456037  0.9999151573353952  1.0000
  Ta  Ta7       1.0  0.12453536895003942  0.377101336277666  0.12326294955150278  1.0000
  W   W4        1.0  0.9987069649689552  0.25164428524925686  0.24788419549965232  1.0000
  Ta  Ta8       1.0  0.12415784954865762  0.37791155397458304  0.3720960829987113  1.0000
  Ta  Ta9       1.0  0.9974194516616797  0.2541179821036246  0.5006009063852606  1.0000
  W   W5        1.0  0.12455519478753299  0.37868725519330826  0.6258754816570407  1.0000
  Ta  Ta10      1.0  0.9976109945635994  0.2543010346634016  0.7536650598907234  1.0000
  W   W6        1.0  0.12474577906916971  0.3785338034988772  0.8757421160273848  1.0000
  W   W7        1.0  0.9983146239866467  0.5005630089269879  0.9993082508225093  1.0000
  W   W8        1.0  0.12480027808936936  0.6257813536776556  0.12397817317877191  1.0000
  W   W9        1.0  0.9972964659636815  0.5013918862612996  0.24819137772483846  1.0000
  Ta  Ta11      1.0  0.12538469574431105  0.622897109617601  0.3706888838245582  1.0000
  W   W10       1.0  0.9998555449282766  0.5001157367765794  0.5011043797666348  1.0000
  W   W11       1.0  0.12444746628736378  0.6229187402371255  0.6266049389327335  1.0000
  W   W12       1.0  0.0013161457162070831  0.5004052956921595  0.7515493718166666  1.0000
  W   W13       1.0  0.12270683828404724  0.6235326082997993  0.8765750015539993  1.0000
  W   W14       1.0  0.0009905167228926486  0.7481884011289825  0.00048033923238242204  1.0000
  W   W15       1.0  0.12477348992949017  0.8720274356417933  0.12591893205273885  1.0000
  W   W16       1.0  0.9975990683640622  0.7490775006637118  0.2464349605027938  1.0000
  Ta  Ta12      1.0  0.12418459466934166  0.8735146586615283  0.36979357741930796  1.0000
  Ta  Ta13      1.0  0.9982851401649501  0.7491792988014474  0.5011623398345814  1.0000
  W   W17       1.0  0.12479047207605705  0.873908580048761  0.6259632469049109  1.0000
  W   W18       1.0  0.00019412774715306134  0.7488079685731884  0.7518283164639344  1.0000
  W   W19       1.0  0.125158449426867  0.8726650615435033  0.8768264926614854  1.0000
  Ta  Ta14      1.0  0.25148719021071125  0.9998953533980608  0.003854294144279987  1.0000
  W   W20       1.0  0.3754551234969508  0.1265577219895727  0.1234479709816283  1.0000
  W   W21       1.0  0.24966750674056765  0.9994931174499032  0.24759850059502278  1.0000
  W   W22       1.0  0.37638510474094583  0.12494130780555904  0.37271870021179293  1.0000
  Ta  Ta15      1.0  0.2518848932021315  0.0012968129893557898  0.4994485724844683  1.0000
  W   W23       1.0  0.3763644598149535  0.12444511986431857  0.627920484125526  1.0000
  W   W24       1.0  0.24971148238874294  0.0005351926009125313  0.7507416208410678  1.0000
  W   W25       1.0  0.3778411145653035  0.12488082804158084  0.8754947467461693  1.0000
  W   W26       1.0  0.250278046209506  0.2503482487912508  0.0005291652369497427  1.0000
  W   W27       1.0  0.3756776886720709  0.37546596621125256  0.1257976220495556  1.0000
  Ta  Ta16      1.0  0.25589539232124  0.2503472481849087  0.24826259192776354  1.0000
  Ta  Ta17      1.0  0.383095232917634  0.3872431170156372  0.38005148287157964  1.0000
  Ta  Ta18      1.0  0.2534348940987806  0.2529650596391426  0.5009653379129817  1.0000
  W   W28       1.0  0.37914051583923386  0.3794039922456626  0.6231298412694984  1.0000
  Ta  Ta19      1.0  0.25326767928725147  0.25273511069410665  0.7488492129648765  1.0000
  Ta  Ta20      1.0  0.3735433873141666  0.3731213023597443  0.8783236028295999  1.0000
  W   W29       1.0  0.2477395094992245  0.5014053427370408  0.0009878077388124156  1.0000
  W   W30       1.0  0.3737325586153816  0.6257618543922717  0.1265616204451277  1.0000
  W   W31       1.0  0.2539841783617056  0.5022812174638805  0.24897291871470706  1.0000
  W   W32       1.0  0.3798134253694674  0.6223010630517688  0.3760950182880708  1.0000
  W   W33       1.0  0.24619827449660353  0.49984082960380455  0.5015885228330454  1.0000
  Ta  Ta21      1.0  0.3803753125515024  0.6154665398475365  0.6160139829917595  1.0000
  W   W34       1.0  0.2489967618583687  0.49955427356873777  0.7489109202270663  1.0000
  Ta  Ta22      1.0  0.37162959994266215  0.6249963891800884  0.8786975852721408  1.0000
  W   W35       1.0  0.24793868874615238  0.7493120302146512  0.0026270341703206615  1.0000
  W   W36       1.0  0.3761065731502734  0.8724273466065829  0.125165889281033  1.0000
  W   W37       1.0  0.25190899339601547  0.7479905388456769  0.24719145572956513  1.0000
  Ta  Ta23      1.0  0.3762429357326355  0.8723881635043601  0.3712977758555558  1.0000
  Ta  Ta24      1.0  0.2504475650798048  0.7467646881207252  0.49914450622762957  1.0000
  Ta  Ta25      1.0  0.377126094315125  0.8765979209215913  0.6256656473971549  1.0000
  Ta  Ta26      1.0  0.2459415687843497  0.7485727735769644  0.7497144631281785  1.0000
  Ta  Ta27      1.0  0.37599239952340296  0.8761421435626215  0.8772977009941503  1.0000
  W   W38       1.0  0.5017338880643728  2.3141628279761683e-05  0.9992521479373387  1.0000
  Ta  Ta28      1.0  0.6239279572883545  0.12392909267728114  0.12352565793123528  1.0000
  Ta  Ta29      1.0  0.49899323921825345  0.0014522705907524136  0.24739377979005883  1.0000
  W   W39       1.0  0.6252602759467686  0.12501602981616897  0.37474603882794383  1.0000
  W   W40       1.0  0.5001687545604375  0.0007442899336365867  0.49896135171743683  1.0000
  Ta  Ta30      1.0  0.6255526880631783  0.12381508597951431  0.6266857078980838  1.0000
  W   W41       1.0  0.499673338500701  0.002184043064644965  0.7524491650092578  1.0000
  W   W42       1.0  0.6245826646377011  0.12434557968096906  0.8740411632721918  1.0000
  W   W43       1.0  0.49890221642884425  0.24801693110861847  0.0005806279966635938  1.0000
  W   W44       1.0  0.6236018321217411  0.37535913145832933  0.12477852254047857  1.0000
  W   W45       1.0  0.5008975778803314  0.25384832175028255  0.25002292563161693  1.0000
  W   W46       1.0  0.6208715956552155  0.37969986349375623  0.3776176389806432  1.0000
  Ta  Ta31      1.0  0.4992219797046635  0.24581525182355238  0.4978978203151629  1.0000
  Ta  Ta32      1.0  0.6216932179978933  0.3785031383353111  0.6207496674098946  1.0000
  W   W47       1.0  0.5005484311785372  0.2505952806663326  0.7507578655287117  1.0000
  W   W48       1.0  0.6261405919676217  0.37310565569959553  0.8749489572666967  1.0000
  Ta  Ta33      1.0  0.5022536785305947  0.4993941669097347  0.004934330145586118  1.0000
  W   W49       1.0  0.6259647577333045  0.6279846909158544  0.12595535878108663  1.0000
  W   W50       1.0  0.5015620551235328  0.5013550570711343  0.24780090674246763  1.0000
  W   W51       1.0  0.618929813352073  0.6214077804429088  0.3780159060347243  1.0000
  Ta  Ta34      1.0  0.6224790155227753  0.621605199599645  0.6179741023435048  1.0000
  Ta  Ta35      1.0  0.5000238691456216  0.49699461533106054  0.754897812013461  1.0000
  Ta  Ta36      1.0  0.6304281385268246  0.6268600842135496  0.8768071099454965  1.0000
  W   W52       1.0  0.5006174161324776  0.7514829159459109  0.00310515575099756  1.0000
  W   W53       1.0  0.6257698884138246  0.8730426764829792  0.12310699200654587  1.0000
  W   W54       1.0  0.5011590529487685  0.7452786081789722  0.24923468740208413  1.0000
  Ta  Ta37      1.0  0.6273160470284095  0.8733377716779077  0.37313522592817205  1.0000
  W   W55       1.0  0.5004851285463751  0.7514643326271175  0.49766972396020764  1.0000
  Ta  Ta38      1.0  0.6281691996631512  0.8757249280412299  0.6260125098753677  1.0000
  Ta  Ta39      1.0  0.501165290960029  0.7492686669092441  0.7508675148069165  1.0000
  W   W56       1.0  0.6248060163353852  0.8760614993963012  0.8766740419790076  1.0000
  W   W57       1.0  0.7484403311891881  0.998281016914242  0.00017873139033682445  1.0000
  Ta  Ta40      1.0  0.875889997547078  0.1251667993187656  0.1251568711386805  1.0000
  W   W58       1.0  0.7504405928225099  0.9975326011235767  0.24814264325807747  1.0000
  Ta  Ta41      1.0  0.8719141638203338  0.12344084081072688  0.37344789856956684  1.0000
  W   W59       1.0  0.7503100020163929  0.9990704445882771  0.49860707308632574  1.0000
  Ta  Ta42      1.0  0.8698691351271505  0.12516588503982853  0.6268031821867693  1.0000
  W   W60       1.0  0.7497813609139127  0.00041535633508723007  0.7542103588483241  1.0000
  W   W61       1.0  0.8728201505069451  0.12540308192954522  0.8756431777763473  1.0000
  Ta  Ta43      1.0  0.7498940872435622  0.2524953439707924  0.9970401114693785  1.0000
  W   W62       1.0  0.8759742432790192  0.37687353406859814  0.12408277965728819  1.0000
  Ta  Ta44      1.0  0.7465689600390318  0.2542491501162324  0.2524343634764428  1.0000
  W   W63       1.0  0.8761919664029366  0.37607349907522897  0.3732854014058263  1.0000
  W   W64       1.0  0.7480124822870894  0.2528112712962743  0.49893828187409234  1.0000
  W   W65       1.0  0.8738806144087108  0.37556199291815917  0.6267762845346848  1.0000
  W   W66       1.0  0.7485953627370736  0.2526700373087447  0.7504401699514696  1.0000
  W   W67       1.0  0.8748160440625463  0.3783960574082135  0.8754848196777208  1.0000
  W   W68       1.0  0.7522255392160537  0.500285034305971  0.0003387975418823094  1.0000
  W   W69       1.0  0.875956518340389  0.6259215798316937  0.12303435607306748  1.0000
  Ta  Ta45      1.0  0.7480645191562506  0.5022071949987819  0.24794857308377943  1.0000
  W   W70       1.0  0.874785284992602  0.626697112440575  0.37235693053197993  1.0000
  Nb  Nb1       1.0  0.7546935492640767  0.49887694629927704  0.49619795648991827  1.0000
  Ta  Ta46      1.0  0.8739936106676821  0.6245251992805112  0.6292354477654112  1.0000
  W   W71       1.0  0.7503621291697765  0.49808139702223425  0.7511391474296979  1.0000
  W   W72       1.0  0.8763753490700854  0.6237562696071964  0.8765723415029009  1.0000
  W   W73       1.0  0.7508743687217011  0.7496549632511386  0.0030895699348759843  1.0000
  W   W74       1.0  0.8733069422860195  0.8730084642805143  0.12721838504541874  1.0000
  W   W75       1.0  0.749493342713663  0.7479970422801853  0.25051073734030904  1.0000
  W   W76       1.0  0.8733984061281119  0.8732696418209596  0.3727247708272308  1.0000
  W   W77       1.0  0.7498290631424708  0.7480046019626374  0.4967497470689228  1.0000
  W   W78       1.0  0.8721807408945964  0.8739094805573799  0.6245220359515333  1.0000
  W   W79       1.0  0.7503901301526884  0.749161496202853  0.7497870861253937  1.0000
  Ta  Ta47      1.0  0.8711084688674041  0.8698734886010256  0.876218498129887  1.0000
