data_image0
_chemical_formula_structural       W3TaWMoNbMoWMo2W3NbW5NbW2MoW5MoWNbW3MoWMoNb2W3MoW3Mo2WNbW2NbW2MoW5MoWMoW3Nb2TaW6Nb2Mo2WMo2WTaW3MoW3Nb2W6MoWMoWMo2Nb2W3NbWNb2MoW2MoWNbWNbW3
_chemical_formula_sum              "W78 Ta3 Mo25 Nb21"
_cell_length_a       12.8
_cell_length_b       12.8
_cell_length_c       12.8
_cell_angle_alpha    90.0
_cell_angle_beta     90.0
_cell_angle_gamma    90.0

_space_group_name_H-M_alt    "P 1"
_space_group_IT_number       1

loop_
  _space_group_symop_operation_xyz
  'x, y, z'

loop_
  _atom_site_type_symbol
  _atom_site_label
  _atom_site_symmetry_multiplicity
  _atom_site_fract_x
  _atom_site_fract_y
  _atom_site_fract_z
  _atom_site_occupancy
  W   W1        1.0  0.9996291614965215  0.0010597352565987492  0.0017895369463082613  1.0000
  W   W2        1.0  0.1250820140158712  0.12545528117555302  0.12475337517288847  1.0000
  W   W3        1.0  0.9990046125206075  0.9986722344208784  0.2483283021450093  1.0000
  Ta  Ta1       1.0  0.12378416078840819  0.12510638518553824  0.3720405669230015  1.0000
  W   W4        1.0  0.9998661516513898  0.9988569623852928  0.500013398975236  1.0000
  Mo  Mo1       1.0  0.12472941616740787  0.12665095417657926  0.6231792193124073  1.0000
  Nb  Nb1       1.0  0.9997001926381353  0.9979655007058154  0.7498142266449086  1.0000
  Mo  Mo2       1.0  0.12412200281259139  0.12688971965619905  0.8777162805314408  1.0000
  W   W5        1.0  0.00031379746116090725  0.2500468670313232  0.0013663615672242333  1.0000
  Mo  Mo3       1.0  0.12468399266649706  0.37432607189114947  0.1248115526757345  1.0000
  Mo  Mo4       1.0  0.0006231913256362915  0.24982303971902448  0.249198116805623  1.0000
  W   W6        1.0  0.12624591963444706  0.37474991898641347  0.3757859460329058  1.0000
  W   W7        1.0  0.0013428397378063837  0.24895107421354606  0.4987318476703151  1.0000
  W   W8        1.0  0.12952533140629297  0.3769780808905743  0.6248615955626364  1.0000
  Nb  Nb2       1.0  0.0026784572808424786  0.25039964242083035  0.7519054846060204  1.0000
  W   W9        1.0  0.12666304607508377  0.3776841034881254  0.8753946364362098  1.0000
  W   W10       1.0  0.0017663012505971035  0.4986279904252672  0.9992706650540303  1.0000
  W   W11       1.0  0.12597579406800236  0.6257835928243489  0.12341724769212455  1.0000
  W   W12       1.0  0.0008392814246697224  0.4982268578611696  0.24778786309810383  1.0000
  W   W13       1.0  0.12790873702774647  0.6269022812379194  0.3760209636310344  1.0000
  Nb  Nb3       1.0  0.004435820986653493  0.5002642910064539  0.49986289057020883  1.0000
  W   W14       1.0  0.12609603658766338  0.6256741599563896  0.6262166147855555  1.0000
  W   W15       1.0  0.0016090296159685929  0.5024876347648833  0.753365704601931  1.0000
  Mo  Mo5       1.0  0.12553718428537702  0.6235761857834146  0.8739812366979385  1.0000
  W   W16       1.0  0.00115608935104366  0.7499261453915298  0.9993035978113203  1.0000
  W   W17       1.0  0.12549111790198053  0.8754768653405398  0.12651421313298183  1.0000
  W   W18       1.0  0.003418300055928283  0.7512597915427655  0.24943026195670512  1.0000
  W   W19       1.0  0.12656212921409626  0.8729968998332889  0.37535804841647896  1.0000
  W   W20       1.0  0.0028421316800944394  0.7527116273579151  0.5012709197276279  1.0000
  Mo  Mo6       1.0  0.1264242270497887  0.8725303998581257  0.6226792738828835  1.0000
  W   W21       1.0  0.00016874368493322416  0.7477898624152501  0.7495674745789798  1.0000
  Nb  Nb4       1.0  0.12698546712348438  0.8706107582248053  0.8764437793585321  1.0000
  W   W22       1.0  0.24938304097567518  0.0003709503333792672  0.0032460902036240322  1.0000
  W   W23       1.0  0.3748845475055518  0.12501282967199778  0.12620798284125317  1.0000
  W   W24       1.0  0.2514203560221796  0.9990220804243315  0.24928368043898308  1.0000
  Mo  Mo7       1.0  0.3747794061893447  0.12465151715908564  0.37297275724000883  1.0000
  W   W25       1.0  0.24905758922906907  0.9986352350792319  0.4990138774374267  1.0000
  Mo  Mo8       1.0  0.3732982488441995  0.12574014378511034  0.6234339230983941  1.0000
  Nb  Nb5       1.0  0.24898797300881667  0.0010295255398975029  0.7476787097625597  1.0000
  Nb  Nb6       1.0  0.37468587322737923  0.12487993231963689  0.8804871941021144  1.0000
  W   W26       1.0  0.24905883417082886  0.25197050210900257  0.0013129115880150075  1.0000
  W   W27       1.0  0.3762934271837315  0.3747118091750615  0.12353961475188828  1.0000
  W   W28       1.0  0.25226057391512074  0.25028245425850826  0.2483900446290899  1.0000
  Mo  Mo9       1.0  0.3740579403998564  0.3754795253766783  0.3756561572189377  1.0000
  W   W29       1.0  0.25080804768634246  0.25079118902605235  0.4993892986609084  1.0000
  W   W30       1.0  0.3706885946633637  0.3726497991355487  0.6242437911381692  1.0000
  W   W31       1.0  0.24917791642662557  0.25203480371815845  0.7509301656528089  1.0000
  Mo  Mo10      1.0  0.37269102612035176  0.37729886164512866  0.874727239539333  1.0000
  Mo  Mo11      1.0  0.24975958610495283  0.4997189901876726  0.9991094363915187  1.0000
  W   W32       1.0  0.37611781514356074  0.6250824501807075  0.1239964028214867  1.0000
  Nb  Nb7       1.0  0.25007295125293827  0.4984902845789288  0.25078955204172826  1.0000
  W   W33       1.0  0.3739182642380334  0.627695681598509  0.37090263417313984  1.0000
  W   W34       1.0  0.2533465654238857  0.5036021266760792  0.5038598842580543  1.0000
  Nb  Nb8       1.0  0.49142496812836783  0.5061580060868968  0.5009129678437798  1.0000
  W   W35       1.0  0.25129943675274424  0.5028278503514052  0.7476185041524313  1.0000
  W   W36       1.0  0.3714385992894826  0.6255599776522938  0.8814631427100545  1.0000
  Mo  Mo12      1.0  0.2506234315436722  0.7501541021709774  0.0020103746384550723  1.0000
  W   W37       1.0  0.37488753322195395  0.8751219778444864  0.12506317351364504  1.0000
  W   W38       1.0  0.24996921151514653  0.7514756063925777  0.24975507052936874  1.0000
  W   W39       1.0  0.3733395156681268  0.8725967952728111  0.37458193419451996  1.0000
  W   W40       1.0  0.253403047997907  0.7462843912712537  0.5021962726804812  1.0000
  W   W41       1.0  0.37216198080116447  0.8741128754067329  0.6231043599562892  1.0000
  Mo  Mo13      1.0  0.2529073532811259  0.7446437999298239  0.7468377994544452  1.0000
  W   W42       1.0  0.3726586395325766  0.8713054185185264  0.8763141630543381  1.0000
  Mo  Mo14      1.0  0.5002242298634738  0.9995531857285634  0.0025216983563938157  1.0000
  W   W43       1.0  0.6247918092225374  0.12572286201641006  0.12457654793126495  1.0000
  W   W44       1.0  0.49996658417937373  0.00017317416840865354  0.2487396848295889  1.0000
  W   W45       1.0  0.6251559170132204  0.12524694373568276  0.3703853689557662  1.0000
  Nb  Nb9       1.0  0.4979109260769754  0.9994437325363614  0.4968516731827616  1.0000
  Nb  Nb10      1.0  0.6276997332657351  0.1233053885471748  0.6252099921696607  1.0000
  Ta  Ta2       1.0  0.49931592139233233  0.9986519440105329  0.7506260468171094  1.0000
  W   W46       1.0  0.6279031842900897  0.12572716694107372  0.8790918484585287  1.0000
  W   W47       1.0  0.5006247714250335  0.2521313461115988  0.002201854713746597  1.0000
  W   W48       1.0  0.6250795609803108  0.37491227197069077  0.12517900822808928  1.0000
  W   W49       1.0  0.4987586629070148  0.25029693854527657  0.25007875747987124  1.0000
  W   W50       1.0  0.6226273242721063  0.374654382099838  0.3708044197329675  1.0000
  W   W51       1.0  0.4969537392964708  0.25000641707858584  0.4962954375169682  1.0000
  Nb  Nb11      1.0  0.6222225816482068  0.3772841478745692  0.6240998266373208  1.0000
  Nb  Nb12      1.0  0.4983672859279409  0.2514770529936853  0.7522529553214757  1.0000
  Mo  Mo15      1.0  0.6257763241391167  0.3757846491274319  0.8765403399511279  1.0000
  Mo  Mo16      1.0  0.5003471653348667  0.5003530605377731  0.0008676100869386472  1.0000
  W   W52       1.0  0.6219461994779247  0.623861661658945  0.1237564076060476  1.0000
  Mo  Mo17      1.0  0.5011222444100605  0.49935444441766397  0.24831696768649977  1.0000
  Mo  Mo18      1.0  0.6214427778000571  0.6249391810586644  0.3751091150395639  1.0000
  W   W53       1.0  0.6279088574676152  0.6256092790593115  0.6264723143350398  1.0000
  Ta  Ta3       1.0  0.4931194459572061  0.5043346378398947  0.7507524990869286  1.0000
  W   W54       1.0  0.6256859484745146  0.6241711799401127  0.8771805228753418  1.0000
  W   W55       1.0  0.49920153595705563  0.7490213382174871  0.0011345450542867444  1.0000
  W   W56       1.0  0.6236171055579963  0.8758023756167499  0.12580648033964745  1.0000
  Mo  Mo19      1.0  0.4982169917588359  0.7508385072629259  0.2494352313540528  1.0000
  W   W57       1.0  0.6223454523236099  0.8751989120346454  0.3735866253125303  1.0000
  W   W58       1.0  0.495744887083125  0.7469041219525451  0.5011417867134897  1.0000
  W   W59       1.0  0.6248723482665421  0.8729002121911972  0.6238886871567781  1.0000
  Nb  Nb13      1.0  0.494569681322655  0.7443027254510216  0.744638962139536  1.0000
  Nb  Nb14      1.0  0.6267659629569667  0.8747242480535594  0.8776861957272076  1.0000
  W   W60       1.0  0.7513278649448275  0.0011413030978991642  0.0024144225486264666  1.0000
  W   W61       1.0  0.8753387310097916  0.1263534567067673  0.12548568871827392  1.0000
  W   W62       1.0  0.7496509560192134  0.001112517331791902  0.24968851879463114  1.0000
  W   W63       1.0  0.875291126416909  0.12382503031194066  0.37222508126720116  1.0000
  W   W64       1.0  0.7520230162558877  0.9988133549606724  0.4976813262244223  1.0000
  W   W65       1.0  0.8757078529228918  0.12237829363738599  0.6244274172249688  1.0000
  Mo  Mo20      1.0  0.7510064074831191  0.9994731211975699  0.7508458268575064  1.0000
  W   W66       1.0  0.8728252683877379  0.12465918034010585  0.8772972297669029  1.0000
  Mo  Mo21      1.0  0.7501892509223735  0.24994706991718257  0.0006251457106550647  1.0000
  W   W67       1.0  0.8748963939021376  0.37288912917004974  0.12436250658892523  1.0000
  Mo  Mo22      1.0  0.7485679437545183  0.24963478796162014  0.24805399453617175  1.0000
  Mo  Mo23      1.0  0.8761674297613696  0.37336603774649435  0.37197334926079817  1.0000
  Nb  Nb15      1.0  0.7508562591721826  0.2483495794712083  0.4972432307430214  1.0000
  Nb  Nb16      1.0  0.8775683762559983  0.37467490865289454  0.6275519783979913  1.0000
  W   W68       1.0  0.7503002385645142  0.25011357859306127  0.7538030422029136  1.0000
  W   W69       1.0  0.8752121002630558  0.37591454870923885  0.8787540919621183  1.0000
  W   W70       1.0  0.7485835472120805  0.4984298091723774  0.9994426796250987  1.0000
  Nb  Nb17      1.0  0.8749694962043336  0.6241620662272138  0.12092815980555797  1.0000
  W   W71       1.0  0.7486874290749219  0.4974065946221085  0.24890922321893538  1.0000
  Nb  Nb18      1.0  0.8781283458955702  0.6262379627242111  0.3738599260009171  1.0000
  Nb  Nb19      1.0  0.7490417531309568  0.5010060091351637  0.4978109312420046  1.0000
  Mo  Mo24      1.0  0.8764453886659246  0.6265476775174063  0.627724491547262  1.0000
  W   W72       1.0  0.7505553568245251  0.5014052567321488  0.7537125061385366  1.0000
  W   W73       1.0  0.875557060376485  0.6253037103883218  0.8751642929843756  1.0000
  Mo  Mo25      1.0  0.7492296300723621  0.7501110104467178  0.9990844516133738  1.0000
  W   W74       1.0  0.8760538042980098  0.8767832990257728  0.12357469307469582  1.0000
  Nb  Nb20      1.0  0.7481069186056961  0.750938961316851  0.2487555506683939  1.0000
  W   W75       1.0  0.8776597670067204  0.8781391025608605  0.374245218925332  1.0000
  Nb  Nb21      1.0  0.7489056893103562  0.7522785973613205  0.5015572491210478  1.0000
  W   W76       1.0  0.8756671718554812  0.8760378616786912  0.6259756688773384  1.0000
  W   W77       1.0  0.7514130437484647  0.7490297994305968  0.7509205831166254  1.0000
  W   W78       1.0  0.8747082519710531  0.8739964936466144  0.8764617954818921  1.0000
