data_image0
_chemical_formula_structural       W6Ta2W6NbW2TaWTaW8TaW2TaW3TaW2Ta3W4Ta2NbW2NbW4TaWTaW3TaW6NbW8TaW3Ta3W3TaW5NbMoTaW4Ta3W8TaNb2TaW4TaWTaW2Ta3
_chemical_formula_sum              "W88 Ta31 Nb7 Mo1"
_cell_length_a       12.8
_cell_length_b       12.8
_cell_length_c       12.8
_cell_angle_alpha    90.0
_cell_angle_beta     90.0
_cell_angle_gamma    90.0

_space_group_name_H-M_alt    "P 1"
_space_group_IT_number       1

loop_
  _space_group_symop_operation_xyz
  'x, y, z'

loop_
  _atom_site_type_symbol
  _atom_site_label
  _atom_site_symmetry_multiplicity
  _atom_site_fract_x
  _atom_site_fract_y
  _atom_site_fract_z
  _atom_site_occupancy
  W   W1        1.0  0.000522229032791749  0.00113990457243828  0.004108705256977445  1.0000
  W   W2        1.0  0.12462775328242574  0.12400421637372731  0.1280096955058244  1.0000
  W   W3        1.0  0.9991560522273948  0.000916501738293023  0.25079897908667237  1.0000
  W   W4        1.0  0.12345138546508495  0.12534079108464302  0.3742001964310617  1.0000
  W   W5        1.0  0.0014455590082829888  0.0018005832423302938  0.49666637348610493  1.0000
  W   W6        1.0  0.1260862986087234  0.1255054432774411  0.6204950371118685  1.0000
  Ta  Ta1       1.0  0.0017608485485088908  0.9994996654186113  0.7467667283096757  1.0000
  Ta  Ta2       1.0  0.12378438759656066  0.1254060764200286  0.8785643785811986  1.0000
  W   W7        1.0  0.9986016139546537  0.2518080495399441  0.0029887660498130572  1.0000
  W   W8        1.0  0.12264410686097094  0.37381527159056294  0.12577629396268736  1.0000
  W   W9        1.0  0.9998653631070411  0.24934226952587096  0.25044931451639063  1.0000
  W   W10       1.0  0.12416647690445809  0.37262396407740267  0.3757751547234334  1.0000
  W   W11       1.0  0.00040224384225756024  0.2504078706640305  0.4971959705739429  1.0000
  W   W12       1.0  0.12410626665621351  0.3771754604584879  0.6223650725122388  1.0000
  Nb  Nb1       1.0  0.9992040674386147  0.25439391719001203  0.7486730323010722  1.0000
  W   W13       1.0  0.12397147808300536  0.3784449819907  0.8758350222907486  1.0000
  W   W14       1.0  0.0008360163963395435  0.4974584886512232  0.9978817307091831  1.0000
  Ta  Ta3       1.0  0.1262704050154269  0.6260873111332043  0.12310309545474865  1.0000
  W   W15       1.0  0.9999840810723398  0.4960157673658075  0.25044865843947584  1.0000
  Ta  Ta4       1.0  0.126383449286423  0.6245084893637921  0.3757313852018545  1.0000
  W   W16       1.0  0.9999492655579414  0.4970335353517469  0.5014743264151889  1.0000
  W   W17       1.0  0.12599042578912445  0.6240154480724198  0.6264674517150419  1.0000
  W   W18       1.0  0.999208889162972  0.5012635749616954  0.7498443397324367  1.0000
  W   W19       1.0  0.12380932916062472  0.6235509808373645  0.8740631164687253  1.0000
  W   W20       1.0  0.9999970568403536  0.7493862448572851  8.350489073594983e-05  1.0000
  W   W21       1.0  0.1240083979759539  0.876557498186965  0.12681531044166894  1.0000
  W   W22       1.0  0.0010806457338472255  0.7532291912444307  0.25009162363585713  1.0000
  W   W23       1.0  0.12651728727773717  0.8771625181610719  0.3735440862075342  1.0000
  Ta  Ta5       1.0  0.002052439306121579  0.7508723363341159  0.5012291624411618  1.0000
  W   W24       1.0  0.12564743294681444  0.8737197795636726  0.622482754050076  1.0000
  W   W25       1.0  0.0010230674786849716  0.7463613006515301  0.7496245482347053  1.0000
  Ta  Ta6       1.0  0.12727194452762314  0.870895747481355  0.8780420595077932  1.0000
  W   W26       1.0  0.2500742373023367  2.2411415788907088e-05  0.0027875612167416715  1.0000
  W   W27       1.0  0.37596905590140867  0.12516568401585434  0.12650031807459328  1.0000
  W   W28       1.0  0.24812429535293862  0.001223262001791758  0.2506429449860033  1.0000
  Ta  Ta7       1.0  0.3750437464769613  0.1262559521576864  0.3745484368291982  1.0000
  W   W29       1.0  0.2475309825453792  0.0001842114616886341  0.4984355849441452  1.0000
  W   W30       1.0  0.37730039151307515  0.1273846066460267  0.6242989584432705  1.0000
  Ta  Ta8       1.0  0.2517439481515128  0.9993799783156431  0.7474231479196054  1.0000
  Ta  Ta9       1.0  0.38033029758094966  0.12467696541963408  0.8760574097930708  1.0000
  Ta  Ta10      1.0  0.2496012958683809  0.2518373311103574  0.00500741829898703  1.0000
  W   W31       1.0  0.3755588530769088  0.37322474033714576  0.1252006168890453  1.0000
  W   W32       1.0  0.24897439618691428  0.24936860234575128  0.2508422571602106  1.0000
  W   W33       1.0  0.374928369907341  0.373206161170448  0.3766463535054726  1.0000
  W   W34       1.0  0.24878137641018647  0.24971672518212865  0.4978593205924378  1.0000
  Ta  Ta11      1.0  0.3742399975058569  0.37469815562817615  0.6241287920011791  1.0000
  Ta  Ta12      1.0  0.24973315247578792  0.25094534192895196  0.7474611370035611  1.0000
  Nb  Nb2       1.0  0.3782031507028456  0.3757950815181974  0.8746296655558677  1.0000
  W   W35       1.0  0.24926891473226104  0.4998010684925991  0.999901905965304  1.0000
  W   W36       1.0  0.37437073774053675  0.6251935425565346  0.12500609971476226  1.0000
  Nb  Nb3       1.0  0.2502222642130961  0.49723580508098253  0.25059719880792153  1.0000
  W   W37       1.0  0.3749406388110458  0.6268120859134292  0.37712309533361466  1.0000
  W   W38       1.0  0.24923756398150562  0.5001479633425296  0.5007658364282828  1.0000
  W   W39       1.0  0.3743554833787006  0.6230995682111785  0.6237700995830895  1.0000
  W   W40       1.0  0.2477513307237361  0.5013286936880095  0.7488384424836881  1.0000
  Ta  Ta13      1.0  0.37273452074014274  0.6233586541997204  0.8731281328593737  1.0000
  W   W41       1.0  0.24987269487028616  0.7497223759410583  0.00041740203109037483  1.0000
  Ta  Ta14      1.0  0.37258034569829873  0.877443279230329  0.12699442329544025  1.0000
  W   W42       1.0  0.25066151735117037  0.7517514487463556  0.2516140707261244  1.0000
  W   W43       1.0  0.37375372261491796  0.8737433503652625  0.37412420113026085  1.0000
  W   W44       1.0  0.2517431038827697  0.7496275078129361  0.499867766540243  1.0000
  Ta  Ta15      1.0  0.3742283519083106  0.8736984708920309  0.6225893204136077  1.0000
  W   W45       1.0  0.2484356274675921  0.7481186548196682  0.7479056866082444  1.0000
  W   W46       1.0  0.3741623069326262  0.875773703837993  0.8756826347244917  1.0000
  W   W47       1.0  0.5009252597807492  0.0012064063446986404  0.0003990558930023585  1.0000
  W   W48       1.0  0.6234052139743779  0.12608117311500155  0.12678018393209806  1.0000
  W   W49       1.0  0.5020628406506109  0.000988566931684011  0.24948614417461598  1.0000
  W   W50       1.0  0.6274837396873383  0.12712116283261524  0.3753802630539188  1.0000
  Nb  Nb4       1.0  0.5011093728800926  0.001098513305009425  0.4995860693880993  1.0000
  W   W51       1.0  0.6240385942128899  0.12651342246702738  0.624066208781018  1.0000
  W   W52       1.0  0.5013555918147038  0.0007754983501923083  0.7510110990272123  1.0000
  W   W53       1.0  0.6238270987810652  0.129884257706411  0.8739367145139992  1.0000
  W   W54       1.0  0.5030546607249533  0.2497399821220586  0.0022786482296637276  1.0000
  W   W55       1.0  0.6246057883945715  0.3710702078353684  0.12452768907402371  1.0000
  W   W56       1.0  0.50020983343137  0.24926214608506653  0.2500392676856253  1.0000
  W   W57       1.0  0.6259165530064903  0.37095297509412534  0.3739675037919111  1.0000
  W   W58       1.0  0.5046233159413572  0.25290925350311844  0.5021934382747086  1.0000
  Ta  Ta16      1.0  0.5053679339628412  0.49456348550874474  0.5058739947621533  1.0000
  W   W59       1.0  0.5067506025976813  0.2526557979415447  0.7448491159775751  1.0000
  W   W60       1.0  0.6244433434534655  0.3732583237121704  0.8745847446193499  1.0000
  W   W61       1.0  0.49957173599232685  0.4985472100609428  0.00011528168476414072  1.0000
  Ta  Ta17      1.0  0.6221022282214435  0.623937116140836  0.12514906421559446  1.0000
  Ta  Ta18      1.0  0.49707733031915274  0.4972513444481586  0.25054735210470125  1.0000
  Ta  Ta19      1.0  0.6250291031653298  0.6253628298139945  0.3786059154835406  1.0000
  W   W62       1.0  0.6259407860567058  0.625044650206751  0.6247493990076833  1.0000
  W   W63       1.0  0.5061432024569843  0.4966394218033818  0.747272215553626  1.0000
  W   W64       1.0  0.6241800636493764  0.619588554818997  0.8720654774120531  1.0000
  Ta  Ta20      1.0  0.5008028707310987  0.7523004145549927  0.9993730021139334  1.0000
  W   W65       1.0  0.623897814824761  0.8779053852406026  0.12802086078271083  1.0000
  W   W66       1.0  0.49797068780118053  0.7513003850073854  0.25227449918083306  1.0000
  W   W67       1.0  0.6243334315196624  0.8770693656921812  0.37474538203002095  1.0000
  W   W68       1.0  0.49930378498792866  0.749407013894655  0.498623637151259  1.0000
  W   W69       1.0  0.6250767785624533  0.8751100230963971  0.6215390706946988  1.0000
  Nb  Nb5       1.0  0.5004758150191966  0.7501922487469149  0.7482375634965006  1.0000
  Mo  Mo1       1.0  0.6239075913561056  0.8765135758422749  0.8754040290326965  1.0000
  Ta  Ta21      1.0  0.7465739948159816  0.0012594270220083086  0.004231030630766281  1.0000
  W   W70       1.0  0.8759874188537793  0.12596587326569017  0.1274867045502477  1.0000
  W   W71       1.0  0.7505942000388922  0.002634864387035054  0.25179303400368713  1.0000
  W   W72       1.0  0.8741344570993365  0.126761800427263  0.3746746552276675  1.0000
  W   W73       1.0  0.7499543748325539  0.0009279059807302107  0.49592613358482723  1.0000
  Ta  Ta22      1.0  0.8719375513756605  0.12940037968339338  0.6201267091974482  1.0000
  Ta  Ta23      1.0  0.7445636848719457  0.000968392989964695  0.7491996263359861  1.0000
  Ta  Ta24      1.0  0.8723286507940154  0.12972864452238936  0.8768184883627874  1.0000
  W   W74       1.0  0.749640473842592  0.25071508613776405  0.001589188455476457  1.0000
  W   W75       1.0  0.8767237571982617  0.37179411536067763  0.12543175223421113  1.0000
  W   W76       1.0  0.7507028003483246  0.24777561795180514  0.24992816473164328  1.0000
  W   W77       1.0  0.8748510573987162  0.37213908562436054  0.37804073006251765  1.0000
  W   W78       1.0  0.7454430540398027  0.2546301638980058  0.5021344630575066  1.0000
  W   W79       1.0  0.8748350756598967  0.376448247171052  0.6237376011852237  1.0000
  W   W80       1.0  0.7442096614669516  0.25642133580599835  0.7463895205423187  1.0000
  W   W81       1.0  0.8734100473755323  0.37560335825113755  0.8731067256810567  1.0000
  Ta  Ta25      1.0  0.7508347858200916  0.49685172884534445  0.9957163924003807  1.0000
  Nb  Nb6       1.0  0.8778677114348867  0.6243041180353772  0.12440511685526263  1.0000
  Nb  Nb7       1.0  0.750943061090146  0.4951093706028762  0.2517442942517197  1.0000
  Ta  Ta26      1.0  0.875183799942128  0.6226521967339107  0.3789827680709063  1.0000
  W   W82       1.0  0.7476957418808761  0.4948001191853602  0.50591414828976  1.0000
  W   W83       1.0  0.874220163982477  0.6203901452375765  0.6249942051639528  1.0000
  W   W84       1.0  0.7468440424021173  0.49512950825963364  0.7449283192483186  1.0000
  W   W85       1.0  0.8774519391565478  0.6218876345620599  0.8723235907331711  1.0000
  Ta  Ta27      1.0  0.7492026194415127  0.7508116367008317  0.9982330419822874  1.0000
  W   W86       1.0  0.8782270634457241  0.8774133578749022  0.12676710827093876  1.0000
  Ta  Ta28      1.0  0.7505354409324805  0.755671054579834  0.25067503628593496  1.0000
  W   W87       1.0  0.8758713509513588  0.8784064312852491  0.3745822930895643  1.0000
  W   W88       1.0  0.7483070523335388  0.7506680633937345  0.5007698425802081  1.0000
  Ta  Ta29      1.0  0.8746481770667183  0.8739123182209801  0.6211793109257189  1.0000
  Ta  Ta30      1.0  0.749488908327967  0.7456730646711589  0.7502145463311107  1.0000
  Ta  Ta31      1.0  0.8785119798761892  0.8742096739996308  0.8768804495602672  1.0000
