data_image0
_chemical_formula_structural       W6Ta2W6NbW2TaWTaW8TaW2TaW3TaW2Ta3W4Ta2NbW2NbW4TaWTaW3TaW6NbW8TaW3Ta3W3TaW5NbMoTaW4Ta3W8TaNb2TaW4TaWTaW2Ta3
_chemical_formula_sum              "W88 Ta31 Nb7 Mo1"
_cell_length_a       12.8
_cell_length_b       12.8
_cell_length_c       12.8
_cell_angle_alpha    90.0
_cell_angle_beta     90.0
_cell_angle_gamma    90.0

_space_group_name_H-M_alt    "P 1"
_space_group_IT_number       1

loop_
  _space_group_symop_operation_xyz
  'x, y, z'

loop_
  _atom_site_type_symbol
  _atom_site_label
  _atom_site_symmetry_multiplicity
  _atom_site_fract_x
  _atom_site_fract_y
  _atom_site_fract_z
  _atom_site_occupancy
  W   W1        1.0  0.0006980827502657971  0.001002081076406112  0.004341210223878342  1.0000
  W   W2        1.0  0.12477049747013957  0.12402346767248892  0.1280624629088783  1.0000
  W   W3        1.0  0.9993442749291115  0.0007136447507367966  0.25070571103204675  1.0000
  W   W4        1.0  0.12353243341472978  0.1254214541975464  0.3742693456822794  1.0000
  W   W5        1.0  0.001617034409776678  0.001654624058111272  0.4966454083081534  1.0000
  W   W6        1.0  0.1263715567588204  0.1257031004315877  0.6204623791725281  1.0000
  Ta  Ta1       1.0  0.0019598260928347143  0.9993316944603817  0.7467079175076223  1.0000
  Ta  Ta2       1.0  0.12410809850303187  0.12556296687782306  0.8784314999543432  1.0000
  W   W7        1.0  0.9988187947474233  0.2517772733266215  0.0032185092037770357  1.0000
  W   W8        1.0  0.1228772492036296  0.373859474375218  0.12593966725176456  1.0000
  W   W9        1.0  4.420340254947693e-05  0.2493071196456101  0.2502437714896001  1.0000
  W   W10       1.0  0.12477117716429452  0.37223837124009584  0.37549799967722286  1.0000
  W   W11       1.0  0.0009515799657585799  0.2507154258491861  0.49758434263262513  1.0000
  W   W12       1.0  0.1246509404074295  0.37691635237578625  0.62277832672068  1.0000
  Nb  Nb1       1.0  0.9997696902618621  0.25430072273919035  0.7486459868305586  1.0000
  W   W13       1.0  0.12423164378884556  0.37848497617585825  0.8757311018338892  1.0000
  W   W14       1.0  0.001067185794851307  0.4974700662848766  0.9980563687599734  1.0000
  Ta  Ta3       1.0  0.12647877117479972  0.6260387655218518  0.1233439394631524  1.0000
  W   W15       1.0  6.768500280704846e-05  0.4960258512623403  0.2503830279648688  1.0000
  Ta  Ta4       1.0  0.1268686356694173  0.6247506181721421  0.37548895332493315  1.0000
  W   W16       1.0  0.0005397857778582256  0.4969847409244815  0.5017815593234658  1.0000
  W   W17       1.0  0.12646315563827937  0.6242981493930804  0.6268228166072158  1.0000
  W   W18       1.0  0.9997442492280372  0.50104055111717  0.7495481431515767  1.0000
  W   W19       1.0  0.12409301480714877  0.6233518068930848  0.8738070898273066  1.0000
  W   W20       1.0  0.0002222446287485384  0.749551606555436  0.0003075462863511456  1.0000
  W   W21       1.0  0.12417206905511446  0.8763773712515235  0.12700347248821423  1.0000
  W   W22       1.0  0.00127172064820426  0.7534717540042374  0.2499716408911848  1.0000
  W   W23       1.0  0.12674019180649138  0.8769487591385111  0.3735133796396531  1.0000
  Ta  Ta5       1.0  0.0022078581714560733  0.7510137236139868  0.5012078612730412  1.0000
  W   W24       1.0  0.12568460352989955  0.8736913959906389  0.6225100663650168  1.0000
  W   W25       1.0  0.001291288055891135  0.7466618736237972  0.7496966664110495  1.0000
  Ta  Ta6       1.0  0.12739671040103176  0.8707634108811407  0.877938543122101  1.0000
  W   W26       1.0  0.25001509985551573  0.9999220413331266  0.002947568268741707  1.0000
  W   W27       1.0  0.37599294914859643  0.12541758702886058  0.12664626262538511  1.0000
  W   W28       1.0  0.24784094210401164  0.001068564053086672  0.2504213013158759  1.0000
  Ta  Ta7       1.0  0.3735581321275599  0.12568543920105477  0.3731087468147565  1.0000
  W   W29       1.0  0.24729933042553373  0.9999466820672862  0.4983985529575774  1.0000
  W   W30       1.0  0.37568379790378276  0.12677914389488268  0.6246312098635103  1.0000
  Ta  Ta8       1.0  0.2515412125122473  0.9992073559302821  0.7475399115340589  1.0000
  Ta  Ta9       1.0  0.3790213889181032  0.12364926227575765  0.8769718781885906  1.0000
  Ta  Ta10      1.0  0.24939038149353476  0.25174662711560003  0.005210383081982419  1.0000
  W   W31       1.0  0.37517391368230374  0.3728500132319814  0.12570371197842561  1.0000
  W   W32       1.0  0.25014897534712877  0.25080180218250864  0.25167777248261697  1.0000
  W   W33       1.0  0.3777504715474328  0.37710406628965215  0.37933691897016486  1.0000
  W   W34       1.0  0.24963711615755058  0.2512577039050112  0.49820092683654565  1.0000
  Ta  Ta11      1.0  0.38035597616510763  0.3821644678382163  0.6165926987043899  1.0000
  Ta  Ta12      1.0  0.2503998202672729  0.2523501391697515  0.7460707691347556  1.0000
  Nb  Nb2       1.0  0.37692042337993475  0.3756981588643868  0.874980977569936  1.0000
  W   W35       1.0  0.2492186204850465  0.4997992143512375  0.00013328335300620217  1.0000
  W   W36       1.0  0.37432838079095476  0.6253788949738571  0.12554763238354133  1.0000
  Nb  Nb3       1.0  0.2512362314983999  0.497269689542037  0.25155061514162746  1.0000
  W   W37       1.0  0.3768545703361245  0.6235505492374187  0.38018726833666916  1.0000
  W   W38       1.0  0.24778497522305323  0.5004794522531335  0.500415874737981  1.0000
  W   W39       1.0  0.3777166417197025  0.620590586313429  0.619336779621993  1.0000
  W   W40       1.0  0.24867438904165778  0.501135368850938  0.7472865389439599  1.0000
  Ta  Ta13      1.0  0.37104889415501496  0.624966654428766  0.8737120271770532  1.0000
  W   W41       1.0  0.24974587257378617  0.74983652327276  0.0005505909933190996  1.0000
  Ta  Ta14      1.0  0.37265510298589927  0.8771799353711969  0.12722153293348892  1.0000
  W   W42       1.0  0.25159313363020597  0.7508946731300044  0.25242012217400933  1.0000
  W   W43       1.0  0.37358563466377087  0.8731831097578453  0.37384423997530775  1.0000
  W   W44       1.0  0.2528543713723453  0.7483893090459022  0.4997787143714377  1.0000
  Ta  Ta15      1.0  0.3737163176929176  0.8731125890185641  0.6229873148375503  1.0000
  W   W45       1.0  0.2494742967088345  0.7470468413104041  0.7468316326598496  1.0000
  W   W46       1.0  0.37418116753663055  0.8756448300080212  0.8754494149015997  1.0000
  W   W47       1.0  0.5008584086149774  0.001167670852894714  0.0005085791759232478  1.0000
  W   W48       1.0  0.6233433966517983  0.1262230633308121  0.12695629793606317  1.0000
  W   W49       1.0  0.5020743047970329  0.0007556806186028434  0.24931179419515953  1.0000
  W   W50       1.0  0.6277543328490309  0.1263792675645882  0.37397997700137375  1.0000
  Nb  Nb4       1.0  0.5011620070027788  0.00023291270769277864  0.4994825911578249  1.0000
  W   W51       1.0  0.6241361358163198  0.12690971629058767  0.6246555932247249  1.0000
  W   W52       1.0  0.5015250894942656  0.00037863391612793964  0.7508123172610071  1.0000
  W   W53       1.0  0.6236494567336329  0.1288317653421076  0.8749713062890587  1.0000
  W   W54       1.0  0.5030344534587738  0.24993658038792496  0.0027164320301012613  1.0000
  W   W55       1.0  0.6247999109363799  0.3708878420778995  0.125148743308448  1.0000
  W   W56       1.0  0.5004277751509493  0.2507131451531356  0.2508300910778031  1.0000
  W   W57       1.0  0.6219875863715871  0.3740093404544514  0.3785638159980529  1.0000
  W   W58       1.0  0.5005555949621615  0.24747926626527864  0.49736347456803504  1.0000
  Ta  Ta16      1.0  0.6218903708713812  0.38016973320456005  0.6196836441981702  1.0000
  W   W59       1.0  0.5021699989727244  0.2495861065791717  0.7477567146110091  1.0000
  W   W60       1.0  0.6250543976025623  0.3728116522595202  0.8743365418374116  1.0000
  W   W61       1.0  0.49961040778302523  0.4984520800740247  0.000552126256133664  1.0000
  Ta  Ta17      1.0  0.6220349230322554  0.6240945165174674  0.12596083251939755  1.0000
  Ta  Ta18      1.0  0.4969066396279345  0.49657242233308785  0.24983675537338923  1.0000
  Ta  Ta19      1.0  0.6182125601101731  0.6194864014051131  0.3850568707256381  1.0000
  W   W62       1.0  0.6210240352563555  0.6202917045753975  0.6207888974725964  1.0000
  W   W63       1.0  0.5018420816257743  0.5016497523480783  0.7523353881021233  1.0000
  W   W64       1.0  0.6246665650219716  0.6211531913854134  0.8730147370582533  1.0000
  Ta  Ta20      1.0  0.5008255252856354  0.7523000921779421  0.9995652185421183  1.0000
  W   W65       1.0  0.6238240573334524  0.877654951855939  0.12832846108769685  1.0000
  W   W66       1.0  0.498136624782603  0.7498985000276336  0.25365203413411436  1.0000
  W   W67       1.0  0.6246404475903921  0.8762140061049201  0.37443388907886344  1.0000
  W   W68       1.0  0.49937084219177397  0.7505030273589169  0.4994685465777937  1.0000
  W   W69       1.0  0.6253899427319448  0.874645159207238  0.621645789388051  1.0000
  Nb  Nb5       1.0  0.5004421147482356  0.7497055375682736  0.7470781243148673  1.0000
  Mo  Mo1       1.0  0.6239495160109003  0.876381831045981  0.8752951526557616  1.0000
  Ta  Ta21      1.0  0.7465778545528912  0.000991331080805189  0.004473559006131683  1.0000
  W   W70       1.0  0.8757197876166778  0.1261799465450654  0.12767137312458515  1.0000
  W   W71       1.0  0.7505844388031736  0.0023837571880027443  0.25149730745781157  1.0000
  W   W72       1.0  0.8751895463289839  0.12552974105216697  0.3733928020553868  1.0000
  W   W73       1.0  0.7496979260251758  0.00046058225092094186  0.49622548299822483  1.0000
  Ta  Ta22      1.0  0.872803633496893  0.1284475029479274  0.619922448428246  1.0000
  Ta  Ta23      1.0  0.7445409590501122  0.00033375948424931  0.7491627144803635  1.0000
  Ta  Ta24      1.0  0.8735336986592468  0.12845939621885216  0.8778283145931275  1.0000
  W   W74       1.0  0.7494566152142139  0.25079793085603147  0.0020116928348609684  1.0000
  W   W75       1.0  0.8766297468789785  0.3718791496420011  0.12569283944322807  1.0000
  W   W76       1.0  0.7492642176410564  0.2492599261428756  0.2505069223263967  1.0000
  W   W77       1.0  0.8758092450981904  0.37172169934374694  0.3762416427658206  1.0000
  W   W78       1.0  0.748959867122025  0.2511961235013497  0.4972914250316928  1.0000
  W   W79       1.0  0.8746674923648395  0.3764444599248543  0.6240098987991562  1.0000
  W   W80       1.0  0.7477401824357864  0.2530941626991997  0.7501053958103759  1.0000
  W   W81       1.0  0.8745447135843848  0.37569494764663064  0.874360980820888  1.0000
  Ta  Ta25      1.0  0.7504619064398256  0.4966563332939551  0.9964958976626915  1.0000
  Nb  Nb6       1.0  0.877620406747951  0.6241961575038191  0.12463538178498891  1.0000
  Nb  Nb7       1.0  0.7494094638475026  0.4951760227540048  0.2526227733210449  1.0000
  Ta  Ta26      1.0  0.8758914412568196  0.6241678685152543  0.37718236099658525  1.0000
  W   W82       1.0  0.7535428473266036  0.4993090141482532  0.5018117739037973  1.0000
  W   W83       1.0  0.8749719501341263  0.6219465675355471  0.6254113278892326  1.0000
  W   W84       1.0  0.7504488663309955  0.49964153044904586  0.7484017781089947  1.0000
  W   W85       1.0  0.8784077025344988  0.6229560100677801  0.8732996926914017  1.0000
  Ta  Ta27      1.0  0.7493160724145003  0.7510819826907722  0.9986091430281833  1.0000
  W   W86       1.0  0.8782305613911957  0.8772909885778859  0.12688699545534687  1.0000
  Ta  Ta28      1.0  0.749211304085665  0.7548554564142957  0.2517414486000338  1.0000
  W   W87       1.0  0.8755692347682176  0.8781643968577874  0.3746990392641855  1.0000
  W   W88       1.0  0.7468646704855663  0.7497134218706243  0.5009227385442894  1.0000
  Ta  Ta29      1.0  0.8745241804963069  0.8737304653642891  0.6211188095592151  1.0000
  Ta  Ta30      1.0  0.7479937866881113  0.7452222794027346  0.7486954762720666  1.0000
  Ta  Ta31      1.0  0.8782913927720665  0.8739810687556692  0.8766399382172132  1.0000
