data_image0
_chemical_formula_structural       W6Ta2W6NbW2TaWTaW8TaW2TaW3TaW2Ta3W4Ta2NbW2NbW4TaWTaW3TaW6NbW8TaW3Ta3W3TaW5NbMoTaW4Ta3W8TaNb2TaW4TaWTaW2Ta3
_chemical_formula_sum              "W88 Ta31 Nb7 Mo1"
_cell_length_a       12.8
_cell_length_b       12.8
_cell_length_c       12.8
_cell_angle_alpha    90.0
_cell_angle_beta     90.0
_cell_angle_gamma    90.0

_space_group_name_H-M_alt    "P 1"
_space_group_IT_number       1

loop_
  _space_group_symop_operation_xyz
  'x, y, z'

loop_
  _atom_site_type_symbol
  _atom_site_label
  _atom_site_symmetry_multiplicity
  _atom_site_fract_x
  _atom_site_fract_y
  _atom_site_fract_z
  _atom_site_occupancy
  W   W1        1.0  0.0008407098554709906  0.0013672752417549835  0.003550611948762493  1.0000
  W   W2        1.0  0.12503466439543748  0.1250592726925283  0.12846540358909658  1.0000
  W   W3        1.0  0.998780881743033  0.0012453347626014397  0.2510258943056277  1.0000
  W   W4        1.0  0.1228093708894676  0.1250171387510328  0.37404068121755907  1.0000
  W   W5        1.0  0.0008684459903436474  0.0021640514475936225  0.49704156128456545  1.0000
  W   W6        1.0  0.12552820923745928  0.1251946761454316  0.6207123084154569  1.0000
  Ta  Ta1       1.0  0.0013959557095350663  0.00034926789553247684  0.7462361777257815  1.0000
  Ta  Ta2       1.0  0.12345885457602997  0.12498635665941589  0.8791427194880563  1.0000
  W   W7        1.0  0.9980256925989767  0.2525424017298648  0.0022244167721863647  1.0000
  W   W8        1.0  0.1229122714674723  0.37365151831516585  0.1262450547794151  1.0000
  W   W9        1.0  0.00020158371786523874  0.24917449327195504  0.24970634058249364  1.0000
  W   W10       1.0  0.12498052944115699  0.37207342309143576  0.3751665049556638  1.0000
  W   W11       1.0  0.9995123931995292  0.2500488169668378  0.497238394729784  1.0000
  W   W12       1.0  0.1220013858390896  0.3760889123529081  0.623194617439831  1.0000
  Nb  Nb1       1.0  0.9987097334950212  0.2534500945018211  0.7493964913328703  1.0000
  W   W13       1.0  0.12375144642070593  0.37841544207043465  0.8764511862849133  1.0000
  W   W14       1.0  0.0003654809543949552  0.4977815166902883  0.99754566836354  1.0000
  Ta  Ta3       1.0  0.12669578382672597  0.6251506721583361  0.1235070897146799  1.0000
  W   W15       1.0  4.8108033392203466e-05  0.4961512369779957  0.24979829914297189  1.0000
  Ta  Ta4       1.0  0.12742144773235076  0.6253062541901665  0.3744318675828169  1.0000
  W   W16       1.0  0.0021614218220898673  0.4977875509943809  0.5004370531805552  1.0000
  W   W17       1.0  0.1273517567779741  0.6245575826746196  0.6269202951182664  1.0000
  W   W18       1.0  0.9976600547465431  0.501233681545352  0.7501027704821615  1.0000
  W   W19       1.0  0.12341586237855426  0.6237424132234112  0.8742528600913857  1.0000
  W   W20       1.0  0.9997583992620979  0.7487543013479668  0.9996734040078298  1.0000
  W   W21       1.0  0.12371944238744069  0.8765295838746444  0.12670006301919345  1.0000
  W   W22       1.0  0.001522219414656519  0.7540681233617197  0.24913294561494276  1.0000
  W   W23       1.0  0.12758534299038082  0.8761407696830364  0.37393798434699177  1.0000
  Ta  Ta5       1.0  0.0033950485883065024  0.7515115622304668  0.5014342442890866  1.0000
  W   W24       1.0  0.12610722296172444  0.8733956188127113  0.622696217093296  1.0000
  W   W25       1.0  0.0010619475957773955  0.7470991594094794  0.7501236882941514  1.0000
  Ta  Ta6       1.0  0.12793810785874  0.8702486753611178  0.8771189778046308  1.0000
  W   W26       1.0  0.2510031196000499  0.0007852431527181761  0.002255365168753065  1.0000
  W   W27       1.0  0.3751655765501693  0.12494008356461701  0.12598219260398583  1.0000
  W   W28       1.0  0.24703412371239283  0.0005888751087579552  0.24986992090920807  1.0000
  Ta  Ta7       1.0  0.37310018957839197  0.12424736202892638  0.3729174367658198  1.0000
  W   W29       1.0  0.24660463863435905  0.9994119311854028  0.4989597661116932  1.0000
  W   W30       1.0  0.3760127277974079  0.12661323982996386  0.6254302117833045  1.0000
  Ta  Ta8       1.0  0.25165293818655343  0.9996966827492089  0.7484136949064761  1.0000
  Ta  Ta9       1.0  0.38256351946661965  0.12730455352483228  0.8740330038219639  1.0000
  Ta  Ta10      1.0  0.2494050343874554  0.25106838230341305  0.004982378351673313  1.0000
  W   W31       1.0  0.3745339037210794  0.3723293285732465  0.12618738731334336  1.0000
  W   W32       1.0  0.25149873519978566  0.2519429913217987  0.252928012630038  1.0000
  W   W33       1.0  0.38341074111681783  0.37850636529085024  0.3850340162485863  1.0000
  W   W34       1.0  0.24777984037250345  0.2494851613958163  0.4968662771289406  1.0000
  Ta  Ta11      1.0  0.36702150371425635  0.3761057228210491  0.6226773891766184  1.0000
  Ta  Ta12      1.0  0.2481306006741847  0.2505767413855154  0.7479599905288594  1.0000
  Nb  Nb2       1.0  0.3770245239566088  0.37474898955324354  0.8750765164115836  1.0000
  W   W35       1.0  0.24908531901457098  0.499504751374227  0.0004929053855615239  1.0000
  W   W36       1.0  0.3738573910097417  0.6258433008464303  0.12648305077737246  1.0000
  Nb  Nb3       1.0  0.2522676235411363  0.49631790212011173  0.2529116793046099  1.0000
  W   W37       1.0  0.3799327263044572  0.6193762463509147  0.3839687457607959  1.0000
  W   W38       1.0  0.24611814670861748  0.50021104467032  0.501238129986908  1.0000
  W   W39       1.0  0.38527589544366536  0.6146302519568242  0.6180844913732864  1.0000
  W   W40       1.0  0.24706245545188618  0.5021707844816378  0.749196881231581  1.0000
  Ta  Ta13      1.0  0.3706198239270187  0.6256790379628098  0.8742918505124821  1.0000
  W   W41       1.0  0.2494843222858424  0.7504819662519742  0.0013797410585317375  1.0000
  Ta  Ta14      1.0  0.37329353186001196  0.8770408493371528  0.1278039086972489  1.0000
  W   W42       1.0  0.2523648464982405  0.7497545068165485  0.2526903700891751  1.0000
  W   W43       1.0  0.37301913270031245  0.872419175658196  0.373786135397563  1.0000
  W   W44       1.0  0.25438207722451317  0.746468601599332  0.5001782206287511  1.0000
  Ta  Ta15      1.0  0.37334869033885104  0.872866085461637  0.6232771134120828  1.0000
  W   W45       1.0  0.25082570720439534  0.745641181747454  0.7454896595278753  1.0000
  W   W46       1.0  0.37381432386409696  0.8766361914883442  0.8758111674736407  1.0000
  W   W47       1.0  0.5008063427974432  0.0019919968884191445  0.9999070015158139  1.0000
  W   W48       1.0  0.6228394372316349  0.12555270474424146  0.12665916879056316  1.0000
  W   W49       1.0  0.5024893301617813  0.999915910888342  0.24931635047510786  1.0000
  W   W50       1.0  0.6280061342830927  0.1260773321461278  0.3747638073179957  1.0000
  Nb  Nb4       1.0  0.5001844828254516  0.9991337954672754  0.498941504297051  1.0000
  W   W51       1.0  0.6237536701143318  0.12437925090330147  0.6241609755545051  1.0000
  W   W52       1.0  0.5015455960709883  0.0013378216300001142  0.7509847109433341  1.0000
  W   W53       1.0  0.6227743912519225  0.13144542045102275  0.8717379190242949  1.0000
  W   W54       1.0  0.5033552088739917  0.24980551169949877  0.0018234879773386618  1.0000
  W   W55       1.0  0.6252472159740153  0.37149888900853767  0.12337153932467364  1.0000
  W   W56       1.0  0.4985062783798743  0.2486124531653005  0.249367764283524  1.0000
  W   W57       1.0  0.6268351446421255  0.3696505787210053  0.36682077448135597  1.0000
  W   W58       1.0  0.4997415631491378  0.2438211066580273  0.4990145692921957  1.0000
  Ta  Ta16      1.0  0.5585613092477592  0.44500147857207073  0.5528437226475355  1.0000
  W   W59       1.0  0.5082835805916213  0.260567661357509  0.737476540684562  1.0000
  W   W60       1.0  0.6241238202451014  0.3734946298084893  0.876933686658609  1.0000
  W   W61       1.0  0.4983846881655648  0.49946350924533306  0.0020230014904336095  1.0000
  Ta  Ta17      1.0  0.6219108880403894  0.6237798422974491  0.12609813627840386  1.0000
  Ta  Ta18      1.0  0.4966817577184673  0.4957317585222875  0.25004805737215313  1.0000
  Ta  Ta19      1.0  0.6170929662747673  0.6165518599461307  0.38773095937278024  1.0000
  W   W62       1.0  0.627461748008139  0.6322899319768311  0.6249148358560158  1.0000
  W   W63       1.0  0.5015892748977678  0.49974554527830667  0.7547309793816921  1.0000
  W   W64       1.0  0.6243835597901968  0.6207822129432518  0.8733275321468557  1.0000
  Ta  Ta20      1.0  0.5011551163383087  0.7529312571794556  0.9998722758497194  1.0000
  W   W65       1.0  0.6238857015322816  0.8766866583078137  0.1289725598427669  1.0000
  W   W66       1.0  0.4982679110217119  0.7479523360237343  0.2548438593382775  1.0000
  W   W67       1.0  0.6245782126163042  0.8754371422199647  0.37398627783256  1.0000
  W   W68       1.0  0.49972867522568154  0.7518981984482749  0.4991290030441371  1.0000
  W   W69       1.0  0.62614840026937  0.8766607512752479  0.6223273944072357  1.0000
  Nb  Nb5       1.0  0.4993572642760493  0.7509171557190676  0.7485075902328066  1.0000
  Mo  Mo1       1.0  0.6240791502360404  0.8773028302926225  0.8761983974509244  1.0000
  Ta  Ta21      1.0  0.745428167750647  0.001905355374350849  0.003627331093239723  1.0000
  W   W70       1.0  0.8767178988624581  0.12512863714744238  0.12614275793709648  1.0000
  W   W71       1.0  0.751283147968057  0.0023141011576690985  0.25125214373043386  1.0000
  W   W72       1.0  0.8724789759251552  0.12825477474291896  0.375771070755708  1.0000
  W   W73       1.0  0.7500808628004773  0.0017206591348963786  0.49537492354996654  1.0000
  Ta  Ta22      1.0  0.8701986714611285  0.13083898718938064  0.6191619538251548  1.0000
  Ta  Ta23      1.0  0.7451791673490393  0.001237837324468108  0.7493087983997665  1.0000
  Ta  Ta24      1.0  0.8709984082405758  0.13061463604134693  0.8757850227196627  1.0000
  W   W74       1.0  0.749792565091017  0.2508486830495617  0.0009786219086713257  1.0000
  W   W75       1.0  0.8766013823709017  0.3723656920854163  0.12488724844415361  1.0000
  W   W76       1.0  0.751638791969388  0.24703519065648583  0.24826083280614225  1.0000
  W   W77       1.0  0.8759337471530928  0.3709036509893655  0.3765065037831377  1.0000
  W   W78       1.0  0.7387669182777489  0.2608525736535699  0.5043935846292638  1.0000
  W   W79       1.0  0.8769562074630419  0.37682359088273987  0.6241111564734404  1.0000
  W   W80       1.0  0.7424932740966967  0.258439073515902  0.7448734617440183  1.0000
  W   W81       1.0  0.8715557397364302  0.3765784996432814  0.8708984603720034  1.0000
  Ta  Ta25      1.0  0.7510044211345677  0.49796225871352706  0.9947908622658004  1.0000
  Nb  Nb6       1.0  0.877631503208972  0.6250187063548135  0.12471390798126107  1.0000
  Nb  Nb7       1.0  0.751116305548178  0.4969959354691827  0.2517492119656762  1.0000
  Ta  Ta26      1.0  0.877353724028284  0.6249596699155717  0.3770127165051923  1.0000
  W   W82       1.0  0.7587103755951969  0.4986360995209748  0.5015577597752199  1.0000
  W   W83       1.0  0.8760183800953794  0.6223182440526316  0.6263492803135674  1.0000
  W   W84       1.0  0.7396163809704809  0.49350626290504124  0.7381968042090447  1.0000
  W   W85       1.0  0.8755878483403384  0.6212169966006664  0.8712351515319934  1.0000
  Ta  Ta27      1.0  0.7493621803357363  0.7509456343780886  0.9991839446450757  1.0000
  W   W86       1.0  0.877642075686495  0.8770021749607422  0.12658489214000404  1.0000
  Ta  Ta28      1.0  0.7479429019721722  0.7534921103082983  0.2531105213067823  1.0000
  W   W87       1.0  0.8765188464206173  0.8786120872940112  0.3741748140795717  1.0000
  W   W88       1.0  0.7487783228268974  0.7516753759750093  0.49931362003659446  1.0000
  Ta  Ta29      1.0  0.8746916734872019  0.8742182028810621  0.6211327500399065  1.0000
  Ta  Ta30      1.0  0.7502424313994078  0.7468615448753091  0.7518101667985561  1.0000
  Ta  Ta31      1.0  0.8791284798275292  0.8756963999702523  0.8775280369728169  1.0000
