data_image0
_chemical_formula_structural       W4TaMoWNbW2MoWNbMoWNbMo2NbWNbW2NbWTaW4NbTaNbMoWNbMoWNb2W2Ta2MoWTaWNbWNbW2Mo2NbWMoNbWTaNbWTaNbW3TaW3NbTaMoWMoW2Ta2W3MoWNb2W2TaW2Nb3WTaMoWNbW2Mo2W2NbTaWNbWMoW2MoNb2Mo2WTa2WNb2W
_chemical_formula_sum              "W59 Ta17 Mo21 Nb30"
_cell_length_a       12.8
_cell_length_b       12.8
_cell_length_c       12.8
_cell_angle_alpha    90.0
_cell_angle_beta     90.0
_cell_angle_gamma    90.0

_space_group_name_H-M_alt    "P 1"
_space_group_IT_number       1

loop_
  _space_group_symop_operation_xyz
  'x, y, z'

loop_
  _atom_site_type_symbol
  _atom_site_label
  _atom_site_symmetry_multiplicity
  _atom_site_fract_x
  _atom_site_fract_y
  _atom_site_fract_z
  _atom_site_occupancy
  W   W1        1.0  0.9963871334304355  0.0006901208228490018  0.0017516873495898773  1.0000
  W   W2        1.0  0.12205761746367007  0.12617448195009373  0.12681128837302347  1.0000
  W   W3        1.0  0.0005899114107141483  0.0021072184919186483  0.24970200886324323  1.0000
  W   W4        1.0  0.12581674351164837  0.12456582711268274  0.3724664962670609  1.0000
  Ta  Ta1       1.0  0.0025667797465266655  0.001523074500119848  0.4992613929351533  1.0000
  Mo  Mo1       1.0  0.12595880905787488  0.12484631018873643  0.6234709066113895  1.0000
  W   W5        1.0  0.9985902696948863  0.0014030801444510257  0.7508631609377303  1.0000
  Nb  Nb1       1.0  0.1215795828903133  0.12586257544474957  0.8765301421777383  1.0000
  W   W6        1.0  0.9999290772311517  0.2498792154997104  0.0031085210939745997  1.0000
  W   W7        1.0  0.12301572886363722  0.3730781969823082  0.12515686747700616  1.0000
  Mo  Mo2       1.0  0.998683960148921  0.2497534406358158  0.2504406094336328  1.0000
  W   W8        1.0  0.12500900163044695  0.373292027919409  0.37395708777998804  1.0000
  Nb  Nb2       1.0  0.004060064441084031  0.2498388781647643  0.4985192732357897  1.0000
  Mo  Mo3       1.0  0.12651575420902808  0.3758097976774897  0.6242333076282681  1.0000
  W   W9        1.0  0.00022737690551534733  0.25035668709971287  0.7494332569002331  1.0000
  Nb  Nb3       1.0  0.1249461185245937  0.37660893694574094  0.8758610222980456  1.0000
  Mo  Mo4       1.0  0.9981759326130967  0.4997118597448258  0.9994988997499702  1.0000
  Mo  Mo5       1.0  0.12525785250502988  0.6243723286766143  0.12604827925548578  1.0000
  Nb  Nb4       1.0  0.9973325647677049  0.5006432021117103  0.24677389061005167  1.0000
  W   W10       1.0  0.12413191900417066  0.6259857769746637  0.37493700695011456  1.0000
  Nb  Nb5       1.0  0.0033827357657731107  0.5008243377304085  0.4988700338844887  1.0000
  W   W11       1.0  0.12686747804772602  0.6241373551518965  0.6264769377092955  1.0000
  W   W12       1.0  0.00023740205424508884  0.49817342346710786  0.7490230128313853  1.0000
  Nb  Nb6       1.0  0.12310825658961516  0.6239721577514644  0.8754699915020646  1.0000
  W   W13       1.0  0.9973267208661313  0.7479904152694178  0.002967900619201909  1.0000
  Ta  Ta2       1.0  0.12172633832871524  0.8755902936668902  0.1273445846731963  1.0000
  W   W14       1.0  0.0002338495664023254  0.748488931498701  0.25052692731917814  1.0000
  W   W15       1.0  0.12618981884912833  0.8759538199919575  0.3751359760935768  1.0000
  W   W16       1.0  0.001504194932232967  0.7493340148916438  0.49738438517528294  1.0000
  W   W17       1.0  0.12433690447529636  0.8741973388063623  0.6238269181080762  1.0000
  Nb  Nb7       1.0  0.0006986618753985043  0.748707320352986  0.7489538356148894  1.0000
  Ta  Ta3       1.0  0.12378495479419618  0.8741844797515421  0.8763645142313315  1.0000
  Nb  Nb8       1.0  0.2501117282857031  0.0027820385165582017  0.006003367159609714  1.0000
  Mo  Mo6       1.0  0.37508255534400625  0.12635241290423682  0.12691057108712805  1.0000
  W   W18       1.0  0.25059062392777265  2.7936542536426613e-05  0.25177962663611303  1.0000
  Nb  Nb9       1.0  0.37492846050312423  0.12587455332602598  0.3770368315432688  1.0000
  Mo  Mo7       1.0  0.2496461275919433  0.0006746632810652771  0.49757801171798044  1.0000
  W   W19       1.0  0.37574182453179755  0.12853516888653482  0.6227948327998265  1.0000
  Nb  Nb10      1.0  0.24798490980800425  0.001320343456847541  0.7452207309059199  1.0000
  Nb  Nb11      1.0  0.37636268816316265  0.1265381461593779  0.872132636320042  1.0000
  W   W20       1.0  0.25000189789418026  0.25132855688353095  0.0017929578447470687  1.0000
  W   W21       1.0  0.3749646479178365  0.37473617175427026  0.12685674060135177  1.0000
  Ta  Ta4       1.0  0.2507369791968054  0.24980679498037842  0.24910032787891256  1.0000
  Ta  Ta5       1.0  0.38539474190467693  0.38088762254245134  0.38470878286184945  1.0000
  Mo  Mo8       1.0  0.2519647629178501  0.25298367385836623  0.4986574223369769  1.0000
  W   W22       1.0  0.37982767759870306  0.3786915418226891  0.621014162988955  1.0000
  Ta  Ta6       1.0  0.24950678155177264  0.2538877929311424  0.7447300775383537  1.0000
  W   W23       1.0  0.37418503088091865  0.375513914099763  0.872231320331331  1.0000
  Nb  Nb12      1.0  0.24916024602740752  0.49907832687274956  0.0036447495410876427  1.0000
  W   W24       1.0  0.3761487487993892  0.6242724443879594  0.12727368101135286  1.0000
  Nb  Nb13      1.0  0.2515730428972822  0.49970190494103983  0.2546532615948853  1.0000
  W   W25       1.0  0.3813195340423003  0.6219688957776923  0.3782509008607509  1.0000
  W   W26       1.0  0.2481157377633987  0.49938010659177773  0.5005960532527799  1.0000
  Mo  Mo9       1.0  0.37775586781141346  0.6181459034430427  0.6184231443191632  1.0000
  Mo  Mo10      1.0  0.2519855206170195  0.500547512798855  0.7462992151400195  1.0000
  Nb  Nb14      1.0  0.37261916247176335  0.6232782715471121  0.8728230708764367  1.0000
  W   W27       1.0  0.24917634188705756  0.7486477677997049  0.002033193312230089  1.0000
  Mo  Mo11      1.0  0.37570236000127294  0.8744184326444595  0.1269281056967797  1.0000
  Nb  Nb15      1.0  0.2524231696848039  0.7490419884980815  0.2502116420969846  1.0000
  W   W28       1.0  0.37476305813671057  0.87469552461399  0.373855063524099  1.0000
  Ta  Ta7       1.0  0.25139309387181197  0.7457160589692141  0.5001441131949823  1.0000
  Nb  Nb16      1.0  0.3750234105315445  0.8762533140996531  0.6219419240822338  1.0000
  W   W29       1.0  0.25046147068245433  0.7482581781405283  0.7473711155455054  1.0000
  Ta  Ta8       1.0  0.373699002408106  0.8741982369854413  0.8744180399649955  1.0000
  Nb  Nb17      1.0  0.501632162689398  0.0014069702702040672  0.0035614818284831064  1.0000
  W   W30       1.0  0.6257924486024464  0.12688808140550512  0.1275318779226672  1.0000
  W   W31       1.0  0.4981475325301421  9.26676216868191e-05  0.2482447341249432  1.0000
  W   W32       1.0  0.623425032891338  0.1280934232869469  0.3728223939897608  1.0000
  Ta  Ta9       1.0  0.5016970976033839  0.0013901849433604993  0.4996187804506494  1.0000
  W   W33       1.0  0.6242789867530927  0.12623786827342362  0.6265152379265688  1.0000
  W   W34       1.0  0.5016954958566288  0.0021350107384789287  0.7487568583426347  1.0000
  W   W35       1.0  0.627058318361443  0.12636791024199764  0.8739355761360026  1.0000
  Nb  Nb18      1.0  0.49727398400224754  0.24930333758022893  0.001238878062895354  1.0000
  Ta  Ta10      1.0  0.6277274247074252  0.3722496819091167  0.12933089021806604  1.0000
  Mo  Mo12      1.0  0.5019476042225163  0.2521687874551482  0.2530878520840759  1.0000
  W   W36       1.0  0.622024739772665  0.37916410040490156  0.3792208870914174  1.0000
  Mo  Mo13      1.0  0.5006103742021626  0.2499052259771725  0.5010657768259292  1.0000
  W   W37       1.0  0.6190264659971035  0.37860095307201164  0.6186328883877437  1.0000
  W   W38       1.0  0.5006714400721761  0.25190070126860453  0.7455175319804177  1.0000
  Ta  Ta11      1.0  0.6257808184780349  0.37140970168981263  0.8738935340850158  1.0000
  Ta  Ta12      1.0  0.4999717219401434  0.49936638124082167  0.0016377210576722318  1.0000
  W   W39       1.0  0.6262846698589188  0.6245327589295889  0.12717551452552667  1.0000
  W   W40       1.0  0.5016164972983876  0.5019769718247566  0.24888967730545417  1.0000
  W   W41       1.0  0.6205484725782755  0.6178357913975209  0.3786829279574816  1.0000
  Mo  Mo14      1.0  0.6213769042304271  0.6203825692070485  0.6194433224484162  1.0000
  W   W42       1.0  0.4995524769835048  0.49822654291734025  0.7482140611361443  1.0000
  Nb  Nb19      1.0  0.626986051387428  0.624507257781574  0.8768572986962131  1.0000
  Nb  Nb20      1.0  0.4995293858810837  0.7497044390390033  0.00511915776727794  1.0000
  W   W43       1.0  0.6261473575110612  0.8744004982109986  0.12689619046723663  1.0000
  W   W44       1.0  0.4991589453101656  0.7478733528410636  0.2527693507153248  1.0000
  Ta  Ta13      1.0  0.6238074094958456  0.8724661604464551  0.3742795258506831  1.0000
  W   W45       1.0  0.5007163818996827  0.7475630681261727  0.4988567464429834  1.0000
  W   W46       1.0  0.6264783767765263  0.8759291029095034  0.6235743007479457  1.0000
  Nb  Nb21      1.0  0.49960888694246086  0.7458455652423567  0.7429554132120174  1.0000
  Nb  Nb22      1.0  0.6257985263517835  0.8762580591845893  0.8739121014284559  1.0000
  Nb  Nb23      1.0  0.7522786449812391  0.0011094762585214944  0.0008250453070312838  1.0000
  W   W47       1.0  0.8766030342485622  0.12764848539215193  0.12449359457955665  1.0000
  Ta  Ta14      1.0  0.7508924036163678  0.0043034500392092005  0.25033892150319625  1.0000
  Mo  Mo15      1.0  0.875421167802941  0.12575836587869788  0.3740575564508864  1.0000
  W   W48       1.0  0.7486203512799366  0.0006583621449364708  0.49932284073655087  1.0000
  Nb  Nb24      1.0  0.8735588001290467  0.1263385365249385  0.6266509466218594  1.0000
  W   W49       1.0  0.7489652884003738  0.002095305779490938  0.7500724407163202  1.0000
  W   W50       1.0  0.8746458132974949  0.1264610280115398  0.874596996710621  1.0000
  Mo  Mo16      1.0  0.7507626905164606  0.2497542736532489  0.001668235098759247  1.0000
  Mo  Mo17      1.0  0.8751802586557172  0.3745666213532739  0.12610485069488456  1.0000
  W   W51       1.0  0.7514031418270316  0.2520146668118058  0.25215941575235157  1.0000
  W   W52       1.0  0.8735020355296588  0.3754896365967395  0.3734825275314307  1.0000
  Nb  Nb25      1.0  0.7461300228859549  0.24923992168713718  0.4966479149553066  1.0000
  Ta  Ta15      1.0  0.8722508145338654  0.3747225054138214  0.6233171757173026  1.0000
  W   W53       1.0  0.747210712541378  0.2500572800010201  0.7484877558580156  1.0000
  Nb  Nb26      1.0  0.8745443758731231  0.37370209505760676  0.8777111028026485  1.0000
  W   W54       1.0  0.7520739277005551  0.5015056125115659  0.00449611798468659  1.0000
  Mo  Mo18      1.0  0.8738373039336161  0.6255849902074951  0.12591341480885548  1.0000
  W   W55       1.0  0.749111751240722  0.49873202479541834  0.2520755857593179  1.0000
  W   W56       1.0  0.8727184944547028  0.6238739276687875  0.3756409065414479  1.0000
  Mo  Mo19      1.0  0.7497001957540432  0.4998144044453062  0.49782497385946434  1.0000
  Nb  Nb27      1.0  0.8742675135405332  0.624128570750504  0.6222312430130292  1.0000
  Nb  Nb28      1.0  0.7472985640896412  0.4997834021257285  0.748220449795377  1.0000
  Mo  Mo20      1.0  0.8752599381874615  0.6249938519229137  0.8755140022707353  1.0000
  Mo  Mo21      1.0  0.7513817305155289  0.7501028516118371  0.0005538899573789026  1.0000
  W   W57       1.0  0.8759156169099057  0.8739746241530366  0.12423961207236732  1.0000
  Ta  Ta16      1.0  0.7495859932418514  0.7434910780168337  0.2488176856382673  1.0000
  Ta  Ta17      1.0  0.876784547644443  0.8723050119839776  0.3743234799766553  1.0000
  W   W58       1.0  0.7459770066843969  0.7470689121989138  0.4996484228057836  1.0000
  Nb  Nb29      1.0  0.8738977179759667  0.8756569537587061  0.6249449355633001  1.0000
  Nb  Nb30      1.0  0.7490847128884138  0.749863892769951  0.7483690344124616  1.0000
  W   W59       1.0  0.8761827180838305  0.8754156270469926  0.8764246366351925  1.0000
