data_image0
_chemical_formula_structural       TaNbMoTaMoTaNbMoWNb3MoTaNbTaNbWMo3Nb2TaMoNbMoNb3MoNb5TaMoNb5Mo2WNbMoNbMoTa2Mo4TaMo2Nb4TaNbW2Nb2MoWNb5Mo2Ta2NbTa3NbMo2TaMo2Nb2TaNbMo2Ta2Nb2TaNbTaNbTaNbTaNb3TaNbTaNb3MoNbMoNbWMoNb3MoNb
_chemical_formula_sum              "Ta26 Nb60 Mo34 W7"
_cell_length_a       12.8
_cell_length_b       12.8
_cell_length_c       12.8
_cell_angle_alpha    90.0
_cell_angle_beta     90.0
_cell_angle_gamma    90.0

_space_group_name_H-M_alt    "P 1"
_space_group_IT_number       1

loop_
  _space_group_symop_operation_xyz
  'x, y, z'

loop_
  _atom_site_type_symbol
  _atom_site_label
  _atom_site_symmetry_multiplicity
  _atom_site_fract_x
  _atom_site_fract_y
  _atom_site_fract_z
  _atom_site_occupancy
  Ta  Ta1       1.0  0.0014400352730937688  0.9982170202581281  0.9998343888389167  1.0000
  Nb  Nb1       1.0  0.12441308202880404  0.12507934118665034  0.12649136719544538  1.0000
  Mo  Mo1       1.0  0.9992839902113815  0.9996826895036571  0.24929775816946012  1.0000
  Ta  Ta2       1.0  0.12322216209342901  0.12543881220553021  0.3773914212148571  1.0000
  Mo  Mo2       1.0  0.00037434489187174744  0.9979421447524927  0.49988178767942093  1.0000
  Ta  Ta3       1.0  0.12489269469954697  0.12890383514743498  0.6205120979022991  1.0000
  Nb  Nb2       1.0  0.0011755413424497684  0.9989943734170575  0.7512597256520387  1.0000
  Mo  Mo3       1.0  0.12530676022401344  0.12526907557812858  0.8742017179887243  1.0000
  W   W1        1.0  0.0013223227484512583  0.24980149392141326  0.9993147924542091  1.0000
  Nb  Nb3       1.0  0.12349419443789408  0.3784298138192769  0.1243846645255852  1.0000
  Nb  Nb4       1.0  0.001100237366107129  0.25056944731752356  0.24904425010965087  1.0000
  Nb  Nb5       1.0  0.1250095177307594  0.3774021167987713  0.3804526642564521  1.0000
  Mo  Mo4       1.0  6.342175263665764e-05  0.250207751640779  0.5006311914929674  1.0000
  Ta  Ta4       1.0  0.13034037260577064  0.37674424070259177  0.6221882846050439  1.0000
  Nb  Nb6       1.0  0.002035309154454498  0.24983178424573538  0.752121231795857  1.0000
  Ta  Ta5       1.0  0.12714336402964377  0.37835267166362374  0.8720702327515539  1.0000
  Nb  Nb7       1.0  0.9997321909100204  0.5033914290617578  0.00017127700221737286  1.0000
  W   W2        1.0  0.1241886651284082  0.6259601156825066  0.12719417776919872  1.0000
  Mo  Mo5       1.0  0.000791125352082159  0.5010901337896606  0.25024902091973367  1.0000
  Mo  Mo6       1.0  0.12644803057165482  0.6256019380048027  0.37305215404616504  1.0000
  Mo  Mo7       1.0  0.0012149534189364731  0.5009974348344692  0.4998940695376272  1.0000
  Nb  Nb8       1.0  0.12647926276931507  0.6206067217031043  0.6229071348572683  1.0000
  Nb  Nb9       1.0  0.9976972008433078  0.5040041004762306  0.7477227601723523  1.0000
  Ta  Ta6       1.0  0.12345566284420281  0.626392522831477  0.8747561845356039  1.0000
  Mo  Mo8       1.0  0.0006842933018677525  0.750428552337965  0.000209769699870991  1.0000
  Nb  Nb10      1.0  0.1212002547370869  0.8687300272358983  0.12874663839552866  1.0000
  Mo  Mo9       1.0  0.0006827293724961349  0.7495889950340752  0.2500111369822447  1.0000
  Nb  Nb11      1.0  0.12347385549756777  0.8733269696388857  0.3731439852276503  1.0000
  Nb  Nb12      1.0  0.00026106165817265585  0.7464473862214481  0.4997118111201129  1.0000
  Nb  Nb13      1.0  0.12384800461903199  0.8732493817831422  0.6252331025305637  1.0000
  Mo  Mo10      1.0  0.00039338586977026216  0.7491634301871497  0.7502250241817009  1.0000
  Nb  Nb14      1.0  0.12573653752580127  0.8715650435730499  0.8737441230849502  1.0000
  Nb  Nb15      1.0  0.24928527409644868  0.9973584370108461  0.0015902227418204467  1.0000
  Nb  Nb16      1.0  0.3774982678733142  0.1236013130234908  0.12627033244348854  1.0000
  Nb  Nb17      1.0  0.2519923958751801  0.9977359726588976  0.24934884185386702  1.0000
  Nb  Nb18      1.0  0.37458412765179444  0.12832299649229584  0.3776629986996477  1.0000
  Ta  Ta7       1.0  0.2520726268668673  0.9989909676729876  0.500483083501303  1.0000
  Mo  Mo11      1.0  0.37481159322339397  0.12710985935257374  0.6243958557974648  1.0000
  Nb  Nb19      1.0  0.2511442103024209  0.0032358228487609584  0.7490167526889384  1.0000
  Nb  Nb20      1.0  0.37603547916299107  0.1236235565959211  0.8745102160186324  1.0000
  Nb  Nb21      1.0  0.24821827339631924  0.24953537319852695  0.9972364015412231  1.0000
  Nb  Nb22      1.0  0.37340421334847823  0.37508033574761745  0.12360158779421818  1.0000
  Nb  Nb23      1.0  0.25194928761216123  0.25434021864362716  0.25301748384687933  1.0000
  Mo  Mo12      1.0  0.3781280499398232  0.3801199255572058  0.38121990837968417  1.0000
  Mo  Mo13      1.0  0.25303032385190416  0.2528088861160156  0.500271400553614  1.0000
  W   W3        1.0  0.37931276471512204  0.3834734142936083  0.61626467846654  1.0000
  Nb  Nb24      1.0  0.25694299791559194  0.2535034682978588  0.7465058732294295  1.0000
  Mo  Mo14      1.0  0.3750208074130504  0.3756219505206371  0.8709888714943638  1.0000
  Nb  Nb25      1.0  0.25370740713524287  0.5036920629423733  0.9987905452511725  1.0000
  Mo  Mo15      1.0  0.374167080472256  0.6261165805954583  0.1274038566695287  1.0000
  Ta  Ta8       1.0  0.24971028092079825  0.5034927013907016  0.2528790355867861  1.0000
  Ta  Ta9       1.0  0.3810710050636379  0.616818910834064  0.384428144650213  1.0000
  Mo  Mo16      1.0  0.24966413056436296  0.49990603502788566  0.4992769005438764  1.0000
  Mo  Mo17      1.0  0.37890909523241395  0.6184671373208659  0.6214321373415916  1.0000
  Mo  Mo18      1.0  0.25309056124841345  0.49994905716362037  0.7470677304345645  1.0000
  Mo  Mo19      1.0  0.37465798372704606  0.6251755454406603  0.873999647903943  1.0000
  Ta  Ta10      1.0  0.25375479992897765  0.7473301568963338  0.0048988611641417  1.0000
  Mo  Mo20      1.0  0.3757292275477276  0.8737946692647981  0.1253068274024543  1.0000
  Mo  Mo21      1.0  0.25107536303740274  0.7473502829481753  0.25168486642277754  1.0000
  Nb  Nb26      1.0  0.37602519944842405  0.8714897423366752  0.3706198971937539  1.0000
  Nb  Nb27      1.0  0.2503543969785508  0.745727847545722  0.49901698374657194  1.0000
  Nb  Nb28      1.0  0.376288973106734  0.8734436981039602  0.6275675838525436  1.0000
  Nb  Nb29      1.0  0.25363887213886294  0.743584735580719  0.7484648610737076  1.0000
  Ta  Ta11      1.0  0.3765165326473547  0.8751756831311075  0.87340128592161  1.0000
  Nb  Nb30      1.0  0.5048771027346852  0.995245718968383  0.0029537835201848875  1.0000
  W   W4        1.0  0.6248563624747084  0.12483620574770184  0.12493262992686577  1.0000
  W   W5        1.0  0.5002031123114646  0.9983343832725597  0.2492683566567687  1.0000
  Nb  Nb31      1.0  0.6228037581662389  0.12503518637251892  0.37481789077695626  1.0000
  Nb  Nb32      1.0  0.4997928926966652  0.002507602490818504  0.502216759722133  1.0000
  Mo  Mo22      1.0  0.6255746930968408  0.12433681449010053  0.6247033149775215  1.0000
  W   W6        1.0  0.5005586260542283  0.0010227251293820124  0.7496300659357809  1.0000
  Nb  Nb33      1.0  0.6248423821692022  0.12332832392580713  0.8759950964987884  1.0000
  Nb  Nb34      1.0  0.49829704695426524  0.25140408448713963  0.997264928235323  1.0000
  Nb  Nb35      1.0  0.6249602145321954  0.3752919798367843  0.12406582598818469  1.0000
  Nb  Nb36      1.0  0.49994904879067154  0.25169592094464305  0.25301385090222467  1.0000
  Nb  Nb37      1.0  0.6123705005920206  0.38451603467989487  0.38839877991096683  1.0000
  Mo  Mo23      1.0  0.4977058407194096  0.2501661515813124  0.5017442268270255  1.0000
  Mo  Mo24      1.0  0.6191616269179709  0.3802899649188058  0.6212417263050776  1.0000
  Ta  Ta12      1.0  0.49903546086267875  0.2504298080988614  0.741264004265159  1.0000
  Ta  Ta13      1.0  0.6224082366986733  0.37899020448391746  0.8709748549512366  1.0000
  Nb  Nb38      1.0  0.4975846037339607  0.5055695728375033  0.9964185604414579  1.0000
  Ta  Ta14      1.0  0.6261346508669667  0.6305276220122764  0.1290955027587559  1.0000
  Ta  Ta15      1.0  0.49529923712848145  0.49947758242397833  0.24578243383403434  1.0000
  Ta  Ta16      1.0  0.619630655553078  0.6226374235172434  0.378315858164086  1.0000
  Nb  Nb39      1.0  0.6147703972058699  0.614699636932582  0.6203166042568848  1.0000
  Mo  Mo25      1.0  0.49638921358999555  0.4984613656566642  0.7496365803009044  1.0000
  Mo  Mo26      1.0  0.6249347087980512  0.6256219649548478  0.8751489161495202  1.0000
  Ta  Ta17      1.0  0.49934668956501227  0.7499146488099583  0.0022751675737179974  1.0000
  Mo  Mo27      1.0  0.6262464659357209  0.8754288056715875  0.12508195422975152  1.0000
  Mo  Mo28      1.0  0.4990211533235464  0.7489187198444548  0.2508748018003492  1.0000
  Nb  Nb40      1.0  0.6233317328984309  0.8708582921627708  0.3723506642088886  1.0000
  Nb  Nb41      1.0  0.49831864323880326  0.7510035713597929  0.5027061353482897  1.0000
  Ta  Ta18      1.0  0.6257679373509757  0.8725381963948597  0.6286196313204616  1.0000
  Nb  Nb42      1.0  0.5023388169751704  0.743636958377269  0.753823645434879  1.0000
  Mo  Mo29      1.0  0.6240450595433553  0.8739292794188208  0.8744515180455561  1.0000
  Mo  Mo30      1.0  0.7518133217264691  0.9993691278808033  0.0005623828169864626  1.0000
  Ta  Ta19      1.0  0.8743230333011909  0.12224019548715097  0.12427575953527303  1.0000
  Ta  Ta20      1.0  0.7465341961801968  0.99675614380367  0.24608870220583914  1.0000
  Nb  Nb43      1.0  0.877259671533227  0.12448733685828398  0.3758785515749946  1.0000
  Nb  Nb44      1.0  0.7501229960005609  0.9985857395900647  0.4986102425485555  1.0000
  Ta  Ta21      1.0  0.8768052666398232  0.12412351308492074  0.6231204178715624  1.0000
  Nb  Nb45      1.0  0.7465797099525264  0.9980617801728406  0.7519187780263414  1.0000
  Ta  Ta22      1.0  0.8739924105255931  0.12462797392194795  0.8756250992451532  1.0000
  Nb  Nb46      1.0  0.74917955992077  0.24958687756080333  0.00032167307290550034  1.0000
  Ta  Ta23      1.0  0.8762471853776054  0.37662724314942386  0.12585336870852623  1.0000
  Nb  Nb47      1.0  0.7472673114439427  0.25037093718357484  0.2527146850029831  1.0000
  Ta  Ta24      1.0  0.8777621415364889  0.3754359634743233  0.376460339619495  1.0000
  Nb  Nb48      1.0  0.7441177227578765  0.25162594992579435  0.5021271915195611  1.0000
  Nb  Nb49      1.0  0.8771160337018304  0.37568672625543154  0.6234480134235296  1.0000
  Nb  Nb50      1.0  0.7456999091488259  0.2518473473280297  0.7456254970887684  1.0000
  Ta  Ta25      1.0  0.8745247640122861  0.3759421697047832  0.8747817655444584  1.0000
  Nb  Nb51      1.0  0.7496038493342244  0.5057173440786576  0.9985440090638975  1.0000
  Ta  Ta26      1.0  0.8785465823351346  0.6323491931327241  0.12704855401652132  1.0000
  Nb  Nb52      1.0  0.7481222097752839  0.4998591361630547  0.2526587030888965  1.0000
  Nb  Nb53      1.0  0.8785304656531945  0.6241628400991872  0.37289551438401525  1.0000
  Nb  Nb54      1.0  0.7534926726208659  0.5009495374141453  0.5030119558132898  1.0000
  Mo  Mo31      1.0  0.8738608380472191  0.6261148449766334  0.625880330600215  1.0000
  Nb  Nb55      1.0  0.7469012425296753  0.5048908287042019  0.7480342204701373  1.0000
  Mo  Mo32      1.0  0.8740410345015609  0.6255631072135505  0.8749320951663165  1.0000
  Nb  Nb56      1.0  0.7471107838114165  0.7542547356590519  0.9978302432900883  1.0000
  W   W7        1.0  0.8746024166261026  0.8735571728640977  0.12483233959814422  1.0000
  Mo  Mo33      1.0  0.749879748052067  0.7494255949673945  0.25113721988780263  1.0000
  Nb  Nb57      1.0  0.8774578482545927  0.8729867978978629  0.37022749415109113  1.0000
  Nb  Nb58      1.0  0.7502025716352388  0.746414013563066  0.5015499563340545  1.0000
  Nb  Nb59      1.0  0.8754842346388727  0.8723594139526292  0.6264528690525684  1.0000
  Mo  Mo34      1.0  0.7492933678166926  0.7472570980490336  0.7491817115189161  1.0000
  Nb  Nb60      1.0  0.8742718677073481  0.8707204242824279  0.8763126172249509  1.0000
