data_image0
_chemical_formula_structural       WMoTaW2MoWMoW2TaWTaWMoW8TaW3MoWMoW2MoWMo2TaMoWMoW2MoWMoWMoTaW2MoWMoW2MoW4NbMoWTaW2Mo2W3MoWMoW5Mo2WMoW7Mo3TaMoTaMo3WMo6W2MoW3TaW2Mo2WMoWMo2TaMoNbMoW
_chemical_formula_sum              "W68 Mo46 Ta11 Nb2"
_cell_length_a       12.8
_cell_length_b       12.8
_cell_length_c       12.8
_cell_angle_alpha    90.0
_cell_angle_beta     90.0
_cell_angle_gamma    90.0

_space_group_name_H-M_alt    "P 1"
_space_group_IT_number       1

loop_
  _space_group_symop_operation_xyz
  'x, y, z'

loop_
  _atom_site_type_symbol
  _atom_site_label
  _atom_site_symmetry_multiplicity
  _atom_site_fract_x
  _atom_site_fract_y
  _atom_site_fract_z
  _atom_site_occupancy
  W   W1        1.0  0.0011422705065182851  0.0023978122099522574  0.998394542637308  1.0000
  Mo  Mo1       1.0  0.12653501561747404  0.12527418471151486  0.12538865840867608  1.0000
  Ta  Ta1       1.0  0.9999932163634527  0.0007123926355928845  0.24776984180561232  1.0000
  W   W2        1.0  0.12783632210835846  0.12727872666146928  0.37485585598592674  1.0000
  W   W3        1.0  0.999248452213789  0.9995911404339966  0.5000970921495719  1.0000
  Mo  Mo2       1.0  0.12491010522303107  0.1256625784624363  0.6246037651933475  1.0000
  W   W4        1.0  0.0010559965080091933  0.001924957356702165  0.7495541332481332  1.0000
  Mo  Mo3       1.0  0.125533209250969  0.12510258275174346  0.8745989205111522  1.0000
  W   W5        1.0  0.9997016860662451  0.24791519587747138  0.999952627259479  1.0000
  W   W6        1.0  0.1274767944333655  0.376105304703395  0.12309261190752752  1.0000
  Ta  Ta2       1.0  0.9986936115121146  0.25011139713667135  0.2462252758861672  1.0000
  W   W7        1.0  0.12804976428411785  0.37469022687314246  0.37455425626029226  1.0000
  Ta  Ta3       1.0  0.9980622513503751  0.24915468523807302  0.5022360886761286  1.0000
  W   W8        1.0  0.12761392550512535  0.37502796029918956  0.6288728365570979  1.0000
  Mo  Mo4       1.0  0.9998206306030493  0.2503441086067562  0.752102276211894  1.0000
  W   W9        1.0  0.12359172284682998  0.37387979206698013  0.8740839129605247  1.0000
  W   W10       1.0  0.9985758697993334  0.4975068818860021  0.001292407903507702  1.0000
  W   W11       1.0  0.12656281548319942  0.6244225904709388  0.1261028167914472  1.0000
  W   W12       1.0  0.9992967105174737  0.4984526226834939  0.2511067751662988  1.0000
  W   W13       1.0  0.12247345635292685  0.6238102766311816  0.374023557773023  1.0000
  W   W14       1.0  0.0010715377842582508  0.499444801435353  0.5005133512765455  1.0000
  W   W15       1.0  0.12581268614941046  0.6235977873232657  0.6251665124772815  1.0000
  W   W16       1.0  0.9980996762809994  0.49894449160243604  0.7486134637113319  1.0000
  Ta  Ta4       1.0  0.12473239614301943  0.6240264172658276  0.8752811037631207  1.0000
  W   W17       1.0  0.998908157489427  0.7522855703818371  0.0005803973147814431  1.0000
  W   W18       1.0  0.1271180968587854  0.8740813709786998  0.12157995103403252  1.0000
  W   W19       1.0  0.003186163761213028  0.7496062546250897  0.24961643323917854  1.0000
  Mo  Mo5       1.0  0.12469258510382464  0.8760284012745287  0.3746047269730949  1.0000
  W   W20       1.0  0.00020262500417228543  0.7497160242232885  0.5003080552983903  1.0000
  Mo  Mo6       1.0  0.1242492975591297  0.8744300051598317  0.6275744986357932  1.0000
  W   W21       1.0  0.9997982213279296  0.7495000227351682  0.7497744220740137  1.0000
  W   W22       1.0  0.1233024559744692  0.8759227505687781  0.8747792232266467  1.0000
  Mo  Mo7       1.0  0.25051316639675686  0.9998352310376196  0.0003768062799750728  1.0000
  W   W23       1.0  0.37523943225257217  0.12473343817871133  0.12454301270214047  1.0000
  Mo  Mo8       1.0  0.25099513539705637  0.9996271228839755  0.24954125970232469  1.0000
  Mo  Mo9       1.0  0.37491117512567174  0.12545751337352062  0.3738660817397224  1.0000
  Ta  Ta5       1.0  0.2508888311026003  0.0034651698122140032  0.5025532670031203  1.0000
  Mo  Mo10      1.0  0.37664492214159484  0.12621755186433528  0.6271316714572178  1.0000
  W   W24       1.0  0.24885950192525436  0.0026438420611456406  0.7497471760807564  1.0000
  Mo  Mo11      1.0  0.3761406084922113  0.12582376515039567  0.8755554113691261  1.0000
  W   W25       1.0  0.24867113394193613  0.2480929559185654  0.001781612964126206  1.0000
  W   W26       1.0  0.3752322391197367  0.3744001660919102  0.1270902889940499  1.0000
  Mo  Mo12      1.0  0.2534624940467205  0.25202879219542806  0.2517521454726489  1.0000
  W   W27       1.0  0.3857744762511683  0.386006716673194  0.3805636266359455  1.0000
  Mo  Mo13      1.0  0.25339745646368333  0.25459499212645587  0.4980950098586835  1.0000
  W   W28       1.0  0.3787089187632747  0.3775651723487306  0.6201931195979383  1.0000
  Mo  Mo14      1.0  0.252050401299665  0.25235253776858746  0.7489895559590563  1.0000
  Ta  Ta6       1.0  0.3729609764004513  0.3732729679874369  0.8750001696075432  1.0000
  W   W29       1.0  0.24961724554718967  0.49959111187815936  0.0012205244327413948  1.0000
  W   W30       1.0  0.376563294291132  0.6252923452325072  0.1252370324473045  1.0000
  Mo  Mo15      1.0  0.2500045192644409  0.49914112911384506  0.2502935459371787  1.0000
  W   W31       1.0  0.3693000701489798  0.6228203789107832  0.3745051687769453  1.0000
  Mo  Mo16      1.0  0.24625127338940173  0.4980534304236208  0.5008429109174115  1.0000
  W   W32       1.0  0.38713281674658423  0.6164306044129731  0.6131453461004666  1.0000
  W   W33       1.0  0.2537700028457577  0.5025527764621229  0.7457173164506786  1.0000
  Mo  Mo17      1.0  0.376583665769354  0.6262287686560092  0.8733910103781475  1.0000
  W   W34       1.0  0.2511172249834876  0.7488982677789952  0.0024085174005771316  1.0000
  W   W35       1.0  0.37803092300701546  0.8738181138220373  0.12911383315796232  1.0000
  W   W36       1.0  0.2511502840482647  0.7507264895030445  0.24872360435058125  1.0000
  W   W37       1.0  0.37721920739028353  0.8745053634655874  0.3713482695217343  1.0000
  Nb  Nb1       1.0  0.25096240070164805  0.749813675065564  0.5011114942299817  1.0000
  Mo  Mo18      1.0  0.37494088675571546  0.8752537961866358  0.6250082638158283  1.0000
  W   W38       1.0  0.25135829496154266  0.7479819339879762  0.7467975671407672  1.0000
  Ta  Ta7       1.0  0.3708944719461287  0.8786249683189418  0.8790612890530268  1.0000
  W   W39       1.0  0.5014257743720624  0.0016746212784771986  0.0011331663744375464  1.0000
  W   W40       1.0  0.6233761374238886  0.12634933514486332  0.12703005861464145  1.0000
  Mo  Mo19      1.0  0.4998079458955237  0.9994772615894474  0.24914791121697724  1.0000
  Mo  Mo20      1.0  0.6253514711706843  0.12477611339753163  0.37579803403665657  1.0000
  W   W41       1.0  0.5010037168105297  0.0010770755703367833  0.49985541266903344  1.0000
  W   W42       1.0  0.6254857633391336  0.12648326165666493  0.6264397156046376  1.0000
  W   W43       1.0  0.5005114891393536  0.0028788697937341613  0.7500978221957317  1.0000
  Mo  Mo21      1.0  0.6249137023506427  0.1261607831266261  0.8746421871560319  1.0000
  W   W44       1.0  0.5014200591906  0.24791471263791176  0.00149812117086381  1.0000
  Mo  Mo22      1.0  0.6251244460047365  0.37538610639854586  0.12505591467225308  1.0000
  W   W45       1.0  0.4981324022117842  0.25023942931884713  0.2510651174109039  1.0000
  W   W46       1.0  0.6240565143908119  0.36914203631795767  0.37592500342797563  1.0000
  W   W47       1.0  0.4979467415593999  0.24372184671042701  0.49995286169857817  1.0000
  W   W48       1.0  0.6186086514850533  0.3849855818112668  0.614139022826909  1.0000
  W   W49       1.0  0.5028272802966653  0.2522332834085519  0.7471759560025586  1.0000
  Mo  Mo23      1.0  0.6274673497537447  0.37470720440221456  0.8726251945390812  1.0000
  Mo  Mo24      1.0  0.4993990161142049  0.4990407613822808  0.9982576618247956  1.0000
  W   W50       1.0  0.6238236862116325  0.6245396064829738  0.12057522099131435  1.0000
  Mo  Mo25      1.0  0.5008712462517128  0.4997809086082469  0.2455121279093589  1.0000
  W   W51       1.0  0.5624729612147312  0.562610330486982  0.43754627513044697  1.0000
  W   W52       1.0  0.6266030803773586  0.624212214956691  0.6300645581788133  1.0000
  W   W53       1.0  0.5005651421446268  0.49847235970917697  0.7520372699418878  1.0000
  W   W54       1.0  0.6264081414746364  0.6238374863016869  0.8773116811909142  1.0000
  W   W55       1.0  0.5008833739533138  0.7517873770511385  0.003811196455444501  1.0000
  W   W56       1.0  0.6239078593304086  0.8726193489518326  0.12891405089851626  1.0000
  W   W57       1.0  0.504297144423718  0.7399250291921095  0.2603020849809711  1.0000
  Mo  Mo26      1.0  0.6244658169679156  0.8780653417224447  0.37426506700244877  1.0000
  Mo  Mo27      1.0  0.5008162736481337  0.7552796017234263  0.4973035802159049  1.0000
  Mo  Mo28      1.0  0.6248700197523128  0.8765773716393663  0.6242220239902516  1.0000
  Ta  Ta8       1.0  0.4990683268262894  0.7511021486721194  0.7486002443214833  1.0000
  Mo  Mo29      1.0  0.6262640513240672  0.8748868464726544  0.8764272847011243  1.0000
  Ta  Ta9       1.0  0.7506101279316051  0.0010034162664272622  0.9987343120209179  1.0000
  Mo  Mo30      1.0  0.8729776830532299  0.1253950131536574  0.12374496964457196  1.0000
  Mo  Mo31      1.0  0.7482348251232065  0.9998246765705121  0.25066582748677707  1.0000
  Mo  Mo32      1.0  0.8755472373727795  0.12574005584145453  0.37615693410370066  1.0000
  W   W58       1.0  0.7483888758113982  0.0024404726392464712  0.4996780935496359  1.0000
  Mo  Mo33      1.0  0.8733357263929886  0.12446101207140656  0.6255830466075913  1.0000
  Mo  Mo34      1.0  0.7498195936045504  0.0005201744005791917  0.7489702808375487  1.0000
  Mo  Mo35      1.0  0.874911754653659  0.12563853742784578  0.8737531434411678  1.0000
  Mo  Mo36      1.0  0.7500124351000049  0.25186136769741774  0.9998461303421524  1.0000
  Mo  Mo37      1.0  0.873816726123343  0.3769462721890098  0.12541259333186647  1.0000
  Mo  Mo38      1.0  0.7481536953420959  0.25099466763072525  0.2503466416770931  1.0000
  W   W59       1.0  0.8722556153489942  0.37814049143411405  0.37313547498589916  1.0000
  W   W60       1.0  0.7477043424016533  0.25027929399281174  0.5016597109529788  1.0000
  Mo  Mo39      1.0  0.8739022902924882  0.37415027651170746  0.6263183657642718  1.0000
  W   W61       1.0  0.7478002469373015  0.252532805272822  0.7476885386326255  1.0000
  W   W62       1.0  0.876151622710304  0.3740673295911072  0.8755277710719233  1.0000
  W   W63       1.0  0.749569667529203  0.4983119181268657  0.9998572181155638  1.0000
  Ta  Ta10      1.0  0.8715642529240946  0.6248724662950633  0.1292226121580439  1.0000
  W   W64       1.0  0.7387407254177414  0.5033235770531055  0.2604865351025497  1.0000
  W   W65       1.0  0.8770415589008311  0.6252733795104668  0.37578546560981146  1.0000
  Mo  Mo40      1.0  0.7554106399481662  0.4991514841019732  0.49992993488245846  1.0000
  Mo  Mo41      1.0  0.8755751715671956  0.6252573201688143  0.6239619870271418  1.0000
  W   W66       1.0  0.7494053720416467  0.4980451402729175  0.7491008120243077  1.0000
  Mo  Mo42      1.0  0.8739800279818822  0.6235049970563974  0.8748414940221192  1.0000
  W   W67       1.0  0.7490378537957882  0.7501370771929701  0.9990013707635352  1.0000
  Mo  Mo43      1.0  0.8747123901419712  0.8745135803978408  0.12276878201112897  1.0000
  Mo  Mo44      1.0  0.7449430170774436  0.7447597652312932  0.25113363644758263  1.0000
  Ta  Ta11      1.0  0.8677897041274978  0.869476009915765  0.37405275012062617  1.0000
  Mo  Mo45      1.0  0.7397245069150539  0.7404569931344838  0.49527357473990663  1.0000
  Nb  Nb2       1.0  0.8700485335452826  0.8727310674440969  0.6247551897369366  1.0000
  Mo  Mo46      1.0  0.751187326204975  0.748307979419027  0.7515834975241595  1.0000
  W   W68       1.0  0.8774714994752124  0.8738325305794628  0.8735893757306356  1.0000
