data_image0
_chemical_formula_structural       NbMoWTaMo2W2Nb2W2NbW2Nb5MoNbWNb3TaWNbWMoNbMoNbTaNbMoTaNbW2MoW2NbMoTaWNb2Mo2NbWNbW2Nb2W2TaNbMoNbWNb3TaW3NbTaMoWNb2WNbW3Nb2W2Nb2MoNbMoNbW2MoNbWNbW2Mo2NbWNb2WNb2TaW2TaNb3TaWNbWMo2NbMoNb
_chemical_formula_sum              "Nb53 Mo21 W42 Ta11"
_cell_length_a       12.8
_cell_length_b       12.8
_cell_length_c       12.8
_cell_angle_alpha    90.0
_cell_angle_beta     90.0
_cell_angle_gamma    90.0

_space_group_name_H-M_alt    "P 1"
_space_group_IT_number       1

loop_
  _space_group_symop_operation_xyz
  'x, y, z'

loop_
  _atom_site_type_symbol
  _atom_site_label
  _atom_site_symmetry_multiplicity
  _atom_site_fract_x
  _atom_site_fract_y
  _atom_site_fract_z
  _atom_site_occupancy
  Nb  Nb1       1.0  0.9975733285674163  0.00397329547418961  7.015291002049711e-05  1.0000
  Mo  Mo1       1.0  0.12464473067093212  0.12530911507249926  0.12463741629876415  1.0000
  W   W1        1.0  0.9995184936470284  0.0022482573405446524  0.25091634633998294  1.0000
  Ta  Ta1       1.0  0.12400811729392912  0.12591337949884146  0.37946977540665233  1.0000
  Mo  Mo2       1.0  0.0006415076405433427  0.00031355362942528457  0.5005826575600527  1.0000
  Mo  Mo3       1.0  0.12618595953052913  0.12651829781728235  0.6267995695179265  1.0000
  W   W2        1.0  0.9995216150492366  0.004388513722503022  0.7483978781065509  1.0000
  W   W3        1.0  0.12712855845916493  0.12683532622323918  0.8750470795065146  1.0000
  Nb  Nb2       1.0  0.9998931900053996  0.2464979574579557  0.00022768984083815135  1.0000
  Nb  Nb3       1.0  0.12701744537463633  0.3721782074242117  0.12876451589682622  1.0000
  W   W4        1.0  0.0003715507330720219  0.24669276305134216  0.25054887503185425  1.0000
  W   W5        1.0  0.12833579696674954  0.37423438494074873  0.37664571274076464  1.0000
  Nb  Nb4       1.0  0.0010436219612091006  0.2488091004744657  0.5029275192711395  1.0000
  W   W6        1.0  0.11765638607842478  0.37701474832302184  0.6233409379965028  1.0000
  W   W7        1.0  0.0009406962516072084  0.24634348546548876  0.7492706455821453  1.0000
  Nb  Nb5       1.0  0.12557065909910262  0.37285517313959926  0.8733856034303157  1.0000
  Nb  Nb6       1.0  0.9987548220414956  0.4997516815297629  0.9985167495867536  1.0000
  Nb  Nb7       1.0  0.1247880080442057  0.6249004172906881  0.1257232759315052  1.0000
  Nb  Nb8       1.0  0.9982382363589524  0.4985690667323801  0.251140225400972  1.0000
  Nb  Nb9       1.0  0.12690755121901887  0.6205703332200186  0.37725398448677394  1.0000
  Mo  Mo4       1.0  0.0003063745550571799  0.500982675981903  0.5003648285158546  1.0000
  Nb  Nb10      1.0  0.12653441922426847  0.6244356264130367  0.6250369651989467  1.0000
  W   W8        1.0  0.9994279022959046  0.4977047358714918  0.749183737163678  1.0000
  Nb  Nb11      1.0  0.12710617166309945  0.623394698953129  0.8721762390376447  1.0000
  Nb  Nb12      1.0  0.00066357435067326  0.7502057463286455  0.0003812048933324835  1.0000
  Nb  Nb13      1.0  0.12631860508404624  0.8772814497937292  0.12476822081525446  1.0000
  Ta  Ta2       1.0  0.9993539469266433  0.7538308072088851  0.2528107941730755  1.0000
  W   W9        1.0  0.1264705943080942  0.8772194406719347  0.377570222333852  1.0000
  Nb  Nb14      1.0  0.001984852364352203  0.75282885441327  0.4994227940415819  1.0000
  W   W10       1.0  0.12473199573780978  0.8780116194178589  0.6236513383413078  1.0000
  Mo  Mo5       1.0  0.0015558237523208673  0.7510248711550936  0.748677093604529  1.0000
  Nb  Nb15      1.0  0.12379903549641177  0.8778555392023779  0.8731579266168654  1.0000
  Mo  Mo6       1.0  0.2498813750503244  0.0007514259653840103  0.9989370215554494  1.0000
  Nb  Nb16      1.0  0.37533280106193606  0.12656249273098097  0.12176400969141561  1.0000
  Ta  Ta3       1.0  0.24799969823897774  0.00307009757350327  0.24947948914056092  1.0000
  Nb  Nb17      1.0  0.3740757449557352  0.1271121042361687  0.37813083379215157  1.0000
  Mo  Mo7       1.0  0.24915433564719802  0.0001616085477529377  0.5003295253809047  1.0000
  Ta  Ta4       1.0  0.37594642797499406  0.11940378660007793  0.6238971832339406  1.0000
  Nb  Nb18      1.0  0.24929249615104562  0.0018574356647399145  0.7518299774988201  1.0000
  W   W11       1.0  0.3743205557893575  0.1266696562831422  0.8740195045276933  1.0000
  W   W12       1.0  0.25136048397239047  0.24806288299465643  0.0003509889026257749  1.0000
  Mo  Mo8       1.0  0.3754507292248293  0.37408754519549664  0.1261750428613809  1.0000
  W   W13       1.0  0.24891703219754382  0.250118470282289  0.2514409979039384  1.0000
  W   W14       1.0  0.3750016438918377  0.3764151874827812  0.37073234563931323  1.0000
  Nb  Nb19      1.0  0.2578331510988152  0.2589025692256191  0.5070053027207491  1.0000
  Mo  Mo9       1.0  0.4948768331660731  0.4938474359328338  0.5031836039892624  1.0000
  Ta  Ta5       1.0  0.25192244235457245  0.2545729798436901  0.7451274970922812  1.0000
  W   W15       1.0  0.37507058226492945  0.37355998734900786  0.8811947486182514  1.0000
  Nb  Nb20      1.0  0.25208518554224646  0.4991763333921968  0.9999703025996797  1.0000
  Nb  Nb21      1.0  0.3768862845761006  0.6231011999587378  0.12619987837342614  1.0000
  Mo  Mo10      1.0  0.2511605852298682  0.4986347712482273  0.25165335733421923  1.0000
  Mo  Mo11      1.0  0.37725723791727284  0.6232121296792466  0.3781947672366543  1.0000
  Nb  Nb22      1.0  0.2597290343882664  0.49673985082407696  0.5052372066543709  1.0000
  W   W16       1.0  0.37636566863546966  0.6297904243230048  0.6250156530693629  1.0000
  Nb  Nb23      1.0  0.25654732033011374  0.4907766418223215  0.7426484307987559  1.0000
  W   W17       1.0  0.3758014754137726  0.623056746463795  0.873464005354303  1.0000
  W   W18       1.0  0.2525186828047767  0.7496275650115936  0.9982919136395346  1.0000
  Nb  Nb24      1.0  0.37440190102380005  0.8743788336588637  0.12330355565407194  1.0000
  Nb  Nb25      1.0  0.2512119448646983  0.7490045744835326  0.25341550370624266  1.0000
  W   W19       1.0  0.37271816632811566  0.8761104578506816  0.37543582683773613  1.0000
  W   W20       1.0  0.2495162351597502  0.750112180632313  0.49805336249013565  1.0000
  Ta  Ta6       1.0  0.37307896819046205  0.8753567961947624  0.6225661178269724  1.0000
  Nb  Nb26      1.0  0.25098050837581276  0.7498515746506395  0.7504566055071138  1.0000
  Mo  Mo12      1.0  0.37583418136309193  0.8752343746799229  0.8747669334559438  1.0000
  Nb  Nb27      1.0  0.5005595147507347  0.0003564151398378133  0.9945772792159709  1.0000
  W   W21       1.0  0.6262972451530496  0.12544333310359784  0.12318627713767584  1.0000
  Nb  Nb28      1.0  0.5003883994437628  0.9998085625364977  0.25066123877229707  1.0000
  Nb  Nb29      1.0  0.6259002426221166  0.1273588274212153  0.3748810007154264  1.0000
  Nb  Nb30      1.0  0.5035038859499763  0.9982496701852491  0.4990974613174793  1.0000
  Ta  Ta7       1.0  0.6244295180274596  0.12421374509454033  0.6270598749537677  1.0000
  W   W22       1.0  0.5018422887327266  0.9996304573647405  0.7519806375183974  1.0000
  W   W23       1.0  0.6236609449412672  0.12646366076085266  0.8752191824382938  1.0000
  W   W24       1.0  0.500051406116881  0.24963273672349884  0.9977842733690528  1.0000
  Nb  Nb31      1.0  0.624921194131628  0.373247690487774  0.12504748218302278  1.0000
  Ta  Ta8       1.0  0.4996157606459698  0.25308601384640644  0.2503901866647287  1.0000
  Mo  Mo13      1.0  0.6214802255535343  0.3757848289908569  0.37611466230973456  1.0000
  W   W25       1.0  0.4957975727512566  0.2553439037465379  0.5028969563807242  1.0000
  Nb  Nb32      1.0  0.6265111610676772  0.3734678706972022  0.6244318080023654  1.0000
  Nb  Nb33      1.0  0.492490309161403  0.25363226744251977  0.7466745390945774  1.0000
  W   W26       1.0  0.6223921968778492  0.37307513883798393  0.8735708208399863  1.0000
  Nb  Nb34      1.0  0.5018432735665672  0.49986254057794166  8.987118455532589e-05  1.0000
  W   W27       1.0  0.6269396165419  0.6261057845235418  0.12654760948298982  1.0000
  W   W28       1.0  0.5009600279462181  0.5007534083059108  0.2528576367733649  1.0000
  W   W29       1.0  0.623816718691325  0.622347383566905  0.37504986358986586  1.0000
  Nb  Nb35      1.0  0.6224768281392943  0.6268667862145572  0.6232971037751427  1.0000
  Nb  Nb36      1.0  0.49276723901325625  0.49555241425392665  0.7438022213180423  1.0000
  W   W30       1.0  0.6225404226973484  0.6256045438729468  0.8744442490648746  1.0000
  W   W31       1.0  0.4997881484447015  0.7480666651964983  0.9976607607322601  1.0000
  Nb  Nb37      1.0  0.6252386807244619  0.8752316638466795  0.12164420613566838  1.0000
  Nb  Nb38      1.0  0.5017428365720578  0.7485951446356758  0.250543800182388  1.0000
  Mo  Mo14      1.0  0.6255866706243934  0.8732474653564143  0.37379896928501494  1.0000
  Nb  Nb39      1.0  0.4996234904247396  0.7488278637266922  0.4966222556932592  1.0000
  Mo  Mo15      1.0  0.6251172092878976  0.8753447330075447  0.6264020309878571  1.0000
  Nb  Nb40      1.0  0.5011265031398305  0.75360917364686  0.753745519651917  1.0000
  W   W32       1.0  0.6281914944691741  0.8756593212045726  0.8748249847307165  1.0000
  W   W33       1.0  0.7496840908390773  0.0035045809384808657  0.9978816541197311  1.0000
  Mo  Mo16      1.0  0.8738421375171929  0.12555492869263804  0.12671019181733992  1.0000
  Nb  Nb41      1.0  0.75234827900791  0.00044862190214794577  0.24924072507518386  1.0000
  W   W34       1.0  0.8762102515023719  0.12398110530500371  0.37528173998981756  1.0000
  Nb  Nb42      1.0  0.7517661603564557  0.9962370047656395  0.5002997369475027  1.0000
  W   W35       1.0  0.8756771674756069  0.12323368707352941  0.6241853532364834  1.0000
  W   W36       1.0  0.7492850836694408  0.00020462561459333477  0.7513535365502094  1.0000
  Mo  Mo17      1.0  0.8754831932306827  0.12394879698506897  0.8739298126759449  1.0000
  Mo  Mo18      1.0  0.7475358227407368  0.24859524374597844  0.0007205231821154973  1.0000
  Nb  Nb43      1.0  0.8737947116121749  0.3727717235461869  0.12549038113453254  1.0000
  W   W37       1.0  0.7509003680991688  0.24987541854853385  0.25002223482354746  1.0000
  Nb  Nb44      1.0  0.8766311425502361  0.37292664971738054  0.3758016339290659  1.0000
  Nb  Nb45      1.0  0.7486436882900049  0.2490482439340802  0.49806464323059346  1.0000
  W   W38       1.0  0.8761085234171913  0.3747091129408867  0.6256810441470024  1.0000
  Nb  Nb46      1.0  0.7528461904740501  0.24604342037986007  0.7518003243504857  1.0000
  Nb  Nb47      1.0  0.873447295947698  0.3723239236504388  0.8739533137192274  1.0000
  Ta  Ta9       1.0  0.7482126353795426  0.5013059444368676  0.0006171203085055464  1.0000
  W   W39       1.0  0.8723242006859931  0.6256616362955549  0.12652296951485426  1.0000
  W   W40       1.0  0.746869573559076  0.49915456791158913  0.2507640864183308  1.0000
  Ta  Ta10      1.0  0.8706457267828223  0.6265901994015768  0.3756299621207121  1.0000
  Nb  Nb48      1.0  0.7471016225163117  0.4994762603100873  0.4985945009783655  1.0000
  Nb  Nb49      1.0  0.8756940032158844  0.6249511502692694  0.624772531789759  1.0000
  Nb  Nb50      1.0  0.7476881681693704  0.5005249928665033  0.7508492291876401  1.0000
  Ta  Ta11      1.0  0.8734873220227191  0.6295625885666949  0.8721598224180044  1.0000
  W   W41       1.0  0.7465470129003331  0.7494469870941978  5.456301322918301e-05  1.0000
  Nb  Nb51      1.0  0.8729680182339815  0.8746492575810537  0.12395304955587966  1.0000
  W   W42       1.0  0.7485556619701501  0.7493860830982074  0.2503301834365761  1.0000
  Mo  Mo19      1.0  0.876490595537326  0.8764513795412815  0.3745732319674388  1.0000
  Mo  Mo20      1.0  0.7495586814735911  0.7500012765178788  0.4990541505947286  1.0000
  Nb  Nb52      1.0  0.8764343949176502  0.8753325270969547  0.6264560292336631  1.0000
  Mo  Mo21      1.0  0.7486721090549474  0.7505881578507341  0.7491852826654979  1.0000
  Nb  Nb53      1.0  0.8724218699085767  0.8760266541126129  0.8730222028439932  1.0000
