data_image0
_chemical_formula_structural       TaWTa3NbTa2NbTa2Nb2TaNbTa2WTaNbTa2NbTa9NbTa4WTaNbTa5WTa3WTa4NbTa2NbTa2NbTa5NbTa4NbTa2WTaWTa10NbTaWTa2NbTaNbTa2NbTa4NbWTa2NbTa4WTa2MoTaMoTa8NbTa
_chemical_formula_sum              "Ta94 W10 Nb21 Mo2"
_cell_length_a       12.8
_cell_length_b       12.8
_cell_length_c       12.8
_cell_angle_alpha    90.0
_cell_angle_beta     90.0
_cell_angle_gamma    90.0

_space_group_name_H-M_alt    "P 1"
_space_group_IT_number       1

loop_
  _space_group_symop_operation_xyz
  'x, y, z'

loop_
  _atom_site_type_symbol
  _atom_site_label
  _atom_site_symmetry_multiplicity
  _atom_site_fract_x
  _atom_site_fract_y
  _atom_site_fract_z
  _atom_site_occupancy
  Ta  Ta1       1.0  0.0007967820202232304  5.731231762407649e-05  0.9999232027496251  1.0000
  W   W1        1.0  0.1255901401378336  0.12518273914818956  0.1247762718257546  1.0000
  Ta  Ta2       1.0  0.002818534850799733  0.0010886443432800903  0.2493508118961152  1.0000
  Ta  Ta3       1.0  0.1254795700311478  0.12524842957296395  0.3752543311120178  1.0000
  Ta  Ta4       1.0  0.000887456027479407  0.998299402529519  0.5003461747871603  1.0000
  Nb  Nb1       1.0  0.12463078862297243  0.1255001311695882  0.624707098681676  1.0000
  Ta  Ta5       1.0  0.0008641111823676808  0.9992926310266842  0.7499564705761474  1.0000
  Ta  Ta6       1.0  0.12539433468959835  0.12509252373684548  0.8761171277225355  1.0000
  Nb  Nb2       1.0  0.0014747261139995416  0.24964758927039668  0.0005075552738833251  1.0000
  Ta  Ta7       1.0  0.12421999425550938  0.3749835393846402  0.12466323368563771  1.0000
  Ta  Ta8       1.0  0.0017641467140929142  0.2503927468341895  0.24945797856127286  1.0000
  Nb  Nb3       1.0  0.1281325071624376  0.377655478208856  0.3786065375478553  1.0000
  Nb  Nb4       1.0  0.0011929643570144288  0.2511044861427152  0.49966022402493476  1.0000
  Ta  Ta9       1.0  0.12648786311635485  0.37863255433564347  0.6258935988521513  1.0000
  Nb  Nb5       1.0  0.0005529341771574048  0.25038815167279094  0.7506766902260152  1.0000
  Ta  Ta10      1.0  0.12749495003150024  0.378039482994767  0.8716784550144696  1.0000
  Ta  Ta11      1.0  0.0021796282640269282  0.5018995232334535  0.0008360501452939758  1.0000
  W   W2        1.0  0.12429384703658099  0.6244531886297047  0.12536869256179317  1.0000
  Ta  Ta12      1.0  0.000641754739975731  0.5019194352131635  0.25174855137872537  1.0000
  Nb  Nb6       1.0  0.1285148372296112  0.6257291449030798  0.3775769712583888  1.0000
  Ta  Ta13      1.0  0.9980501774329932  0.5025302435453965  0.4983163960737963  1.0000
  Ta  Ta14      1.0  0.12051154699622967  0.6242334120899705  0.6251062217698773  1.0000
  Nb  Nb7       1.0  0.9981372246315114  0.5008448859441523  0.7496199891046308  1.0000
  Ta  Ta15      1.0  0.12799266751658384  0.6234873524389707  0.8716456223443098  1.0000
  Ta  Ta16      1.0  0.0022159474847381986  0.7484990086720971  7.769273795552372e-05  1.0000
  Ta  Ta17      1.0  0.12415794422638626  0.8750178816543784  0.12510646990959168  1.0000
  Ta  Ta18      1.0  0.00042263650552863924  0.7468614976124545  0.250944787089436  1.0000
  Ta  Ta19      1.0  0.12794441545266586  0.8713647502588712  0.37799735887201924  1.0000
  Ta  Ta20      1.0  0.9967941786793723  0.7470145282775263  0.49930471813272426  1.0000
  Ta  Ta21      1.0  0.12717641708367894  0.8710267894159761  0.6239944550226022  1.0000
  Ta  Ta22      1.0  0.9995739068916664  0.74901299898425  0.7494746745993386  1.0000
  Ta  Ta23      1.0  0.12868573470595931  0.8723573144287655  0.8721649279514966  1.0000
  Nb  Nb8       1.0  0.24955107695896248  0.00019516270312587507  0.0012591200238502161  1.0000
  Ta  Ta24      1.0  0.3761900586807168  0.12611608110296635  0.12647772161123472  1.0000
  Ta  Ta25      1.0  0.24921464052989745  0.00013094709529746934  0.2503579776048521  1.0000
  Ta  Ta26      1.0  0.3776469891005993  0.127571146936261  0.3749194723315782  1.0000
  Ta  Ta27      1.0  0.2504645311879645  0.0017404985009407045  0.49989767980203353  1.0000
  W   W3        1.0  0.3770656047184573  0.1258482207008338  0.6236921950155137  1.0000
  Ta  Ta28      1.0  0.2504022987552018  0.0013800075100771233  0.7481558393843212  1.0000
  Nb  Nb9       1.0  0.374665650723443  0.12426691134540223  0.8748219301246158  1.0000
  Ta  Ta29      1.0  0.2499255819230428  0.25051681379739865  0.00020637900450892304  1.0000
  Ta  Ta30      1.0  0.37630252160418237  0.37396012500522996  0.12659441341293234  1.0000
  Ta  Ta31      1.0  0.24872234908963717  0.24992163954603505  0.25002329732189055  1.0000
  Ta  Ta32      1.0  0.37742419715926895  0.3753715497669446  0.3766062034431714  1.0000
  Ta  Ta33      1.0  0.2523193599874628  0.25099693084894287  0.5021734450983171  1.0000
  W   W4        1.0  0.37608842326816966  0.3678820824622254  0.6239348415420854  1.0000
  Ta  Ta34      1.0  0.2514430998988828  0.24991147738939973  0.748599737717126  1.0000
  Ta  Ta35      1.0  0.3741366616159835  0.37808814261143964  0.8727417314593833  1.0000
  Ta  Ta36      1.0  0.24958301653992115  0.5011780995907531  0.003005070090474036  1.0000
  W   W5        1.0  0.37639682631580973  0.6246645572815203  0.12557340195781436  1.0000
  Ta  Ta37      1.0  0.24898557026966264  0.5011139342068367  0.24920237829142156  1.0000
  Ta  Ta38      1.0  0.37658621763805716  0.6265769132127518  0.3678994299733173  1.0000
  Ta  Ta39      1.0  0.2586066522126358  0.5058375898774784  0.5069157902511574  1.0000
  Ta  Ta40      1.0  0.48937637115267335  0.5075678196610279  0.5101482148582854  1.0000
  Nb  Nb10      1.0  0.26194005158607636  0.5078603825665509  0.7387406593456187  1.0000
  Ta  Ta41      1.0  0.37505186915693056  0.6249909352020317  0.8813950622737671  1.0000
  Ta  Ta42      1.0  0.24880143463464094  0.7478096227712862  0.0024250608088649413  1.0000
  Nb  Nb11      1.0  0.3760907434308755  0.8738251827290899  0.12579501260716708  1.0000
  Ta  Ta43      1.0  0.24951193838504693  0.7485322034033842  0.24694352095601904  1.0000
  Ta  Ta44      1.0  0.3749792795975827  0.8716567615386139  0.3765669916939546  1.0000
  Nb  Nb12      1.0  0.2593676022499903  0.7406219291486128  0.5089592164797887  1.0000
  Ta  Ta45      1.0  0.3743288803582906  0.8809935609352021  0.6249439681111204  1.0000
  Ta  Ta46      1.0  0.25791734681813167  0.742720894592316  0.7431573651132  1.0000
  Ta  Ta47      1.0  0.3740993965084763  0.8726216007974965  0.8734390745442416  1.0000
  Ta  Ta48      1.0  0.5008880275330259  0.9992957845473165  0.9990355623214088  1.0000
  Ta  Ta49      1.0  0.6245742450335265  0.12698071193140234  0.12601946921701185  1.0000
  Nb  Nb13      1.0  0.4993047214751836  0.9988812282090628  0.2505637285530054  1.0000
  Ta  Ta50      1.0  0.6226167335079977  0.12705579309335152  0.37443590686151473  1.0000
  Ta  Ta51      1.0  0.4995711749949358  0.00037178128230502724  0.5009722712279554  1.0000
  Ta  Ta52      1.0  0.6233519890216217  0.12720127595018008  0.6232544053857126  1.0000
  Ta  Ta53      1.0  0.5005345111288789  0.9999702799927792  0.7501472467717379  1.0000
  Nb  Nb14      1.0  0.6253285985638213  0.12738845954650693  0.8757714949084794  1.0000
  Ta  Ta54      1.0  0.4997862250655341  0.25079169820932085  0.998916320087888  1.0000
  Ta  Ta55      1.0  0.6267314030127207  0.37448904567384805  0.1238900349220469  1.0000
  W   W6        1.0  0.5001268009205941  0.25165690113197425  0.24994265271275853  1.0000
  Ta  Ta56      1.0  0.6189928795971243  0.37719157409795456  0.37810368950723267  1.0000
  W   W7        1.0  0.49940247349148426  0.25110401194120224  0.5003285696387764  1.0000
  Ta  Ta57      1.0  0.6221350200289519  0.37679427669321724  0.6234519685583086  1.0000
  Ta  Ta58      1.0  0.4980112064965606  0.25124373522753757  0.7486079774687353  1.0000
  Ta  Ta59      1.0  0.6240350506311958  0.3791398356628673  0.873744986959234  1.0000
  Ta  Ta60      1.0  0.4995321448422035  0.4996297938792299  0.0003812628222907945  1.0000
  Ta  Ta61      1.0  0.6246321689399749  0.6247487721650533  0.12499928509467621  1.0000
  Ta  Ta62      1.0  0.49971113545087964  0.5004518542377092  0.2489896216810507  1.0000
  Ta  Ta63      1.0  0.6207542050241073  0.6248813193076503  0.3769596109222814  1.0000
  Ta  Ta64      1.0  0.6308699678652506  0.6245419930716777  0.6248998833787135  1.0000
  Ta  Ta65      1.0  0.4919962208793599  0.5068126930408152  0.741338768992692  1.0000
  Ta  Ta66      1.0  0.623598594798674  0.6239124091245808  0.8735169297695322  1.0000
  Nb  Nb15      1.0  0.4996602054289826  0.7500021581652205  0.0010868691756292495  1.0000
  Ta  Ta67      1.0  0.6249678525807909  0.8737613244286913  0.1274913760757598  1.0000
  W   W8        1.0  0.4999079481993804  0.7495038061749859  0.2501916740611999  1.0000
  Ta  Ta68      1.0  0.6208520287196772  0.8705164700691144  0.3761422480880667  1.0000
  Ta  Ta69      1.0  0.49304055619359605  0.7427054087420558  0.5081444690240212  1.0000
  Nb  Nb16      1.0  0.6233900576247388  0.8720454252788284  0.6245472689212748  1.0000
  Ta  Ta70      1.0  0.4910208956875573  0.7415326428122514  0.74103982011763  1.0000
  Nb  Nb17      1.0  0.6218453883008586  0.870879872017203  0.8724237898755018  1.0000
  Ta  Ta71      1.0  0.7481475779826218  0.9994734317477084  0.9983072622596042  1.0000
  Ta  Ta72      1.0  0.8732732940703603  0.1264454981375884  0.12414709470274274  1.0000
  Nb  Nb18      1.0  0.7493591426788861  0.999667940199591  0.25116715464666783  1.0000
  Ta  Ta73      1.0  0.8752172707968109  0.12463006824593663  0.3755612079153003  1.0000
  Ta  Ta74      1.0  0.747995187110858  0.9989616708156633  0.5002071951625151  1.0000
  Ta  Ta75      1.0  0.8745819465469441  0.12542891441119908  0.624299673317981  1.0000
  Ta  Ta76      1.0  0.7481732638191629  9.0166183491802e-05  0.7504046177202083  1.0000
  Nb  Nb19      1.0  0.8742213038393054  0.125838487945085  0.8756507601348509  1.0000
  W   W9        1.0  0.7488769851786424  0.2503221331723155  0.9993627880587941  1.0000
  Ta  Ta77      1.0  0.8731524625446898  0.3756045506577094  0.1222541974903772  1.0000
  Ta  Ta78      1.0  0.7490378782667871  0.25205224043280866  0.25111052959135416  1.0000
  Nb  Nb20      1.0  0.8753184186761904  0.3741139549585573  0.37469655820989023  1.0000
  Ta  Ta79      1.0  0.7488233430665348  0.2514754288050563  0.49946858997107857  1.0000
  Ta  Ta80      1.0  0.8759869388687924  0.3740022141108234  0.6252941930423096  1.0000
  Ta  Ta81      1.0  0.7489137019840504  0.2509003729943294  0.750495910976195  1.0000
  Ta  Ta82      1.0  0.8735350000776271  0.375501765747959  0.8777784506623678  1.0000
  W   W10       1.0  0.7486790050346591  0.5001735382723588  0.9996312890815661  1.0000
  Ta  Ta83      1.0  0.8735318561119387  0.6233360494434463  0.12292063734910709  1.0000
  Ta  Ta84      1.0  0.7505117260955518  0.5009259018478024  0.25249575950754155  1.0000
  Mo  Mo1       1.0  0.8742233527621825  0.625119351577934  0.3735765186575347  1.0000
  Ta  Ta85      1.0  0.7524990544371726  0.5014019463703011  0.49908673485858673  1.0000
  Mo  Mo2       1.0  0.874851797766103  0.6249452389719138  0.6254165757272067  1.0000
  Ta  Ta86      1.0  0.750419270605053  0.4993907926064786  0.7488244041044658  1.0000
  Ta  Ta87      1.0  0.8730657892623167  0.6238521498359538  0.8764449298987034  1.0000
  Ta  Ta88      1.0  0.7490683780490939  0.7502948641255469  0.9998986075293593  1.0000
  Ta  Ta89      1.0  0.8746902436333426  0.8748122727894636  0.12548609020971413  1.0000
  Ta  Ta90      1.0  0.7507088410353774  0.7474021425348343  0.2524750990709456  1.0000
  Ta  Ta91      1.0  0.8755754461377447  0.8764039754102082  0.3743840499779507  1.0000
  Ta  Ta92      1.0  0.7521067539289805  0.7483022018399744  0.4986156003634154  1.0000
  Ta  Ta93      1.0  0.8749542931731027  0.8755886927954084  0.6253038427032719  1.0000
  Nb  Nb21      1.0  0.7505381961102492  0.749673186223198  0.7496786149956907  1.0000
  Ta  Ta94      1.0  0.8755309537229794  0.8740590077564858  0.8747843460088639  1.0000
