data_image0
_chemical_formula_structural       W5MoNbTaMoW3TaWMoW2MoW5Mo2WNbTaMoW5TaW2NbTaWTaW3MoW5TaNbWMoNbW2NbWMoW2TaMoW4MoW2TaW3MoTa4W5MoW7TaMoW3TaMo3WTaW10MoW5TaW3NbWTa
_chemical_formula_sum              "W83 Mo19 Nb7 Ta18"
_cell_length_a       12.8
_cell_length_b       12.8
_cell_length_c       12.8
_cell_angle_alpha    90.0
_cell_angle_beta     90.0
_cell_angle_gamma    90.0

_space_group_name_H-M_alt    "P 1"
_space_group_IT_number       1

loop_
  _space_group_symop_operation_xyz
  'x, y, z'

loop_
  _atom_site_type_symbol
  _atom_site_label
  _atom_site_symmetry_multiplicity
  _atom_site_fract_x
  _atom_site_fract_y
  _atom_site_fract_z
  _atom_site_occupancy
  W   W1        1.0  0.0004615879052475078  0.0014957083809652612  0.0012005815280343728  1.0000
  W   W2        1.0  0.12263226757314086  0.1236989332293871  0.12620442202542886  1.0000
  W   W3        1.0  0.000956623587998279  0.000507170845694784  0.250068253986608  1.0000
  W   W4        1.0  0.1265367062156465  0.12582102492332664  0.3742186720614471  1.0000
  W   W5        1.0  0.0025261211650684776  0.0001627824709219607  0.4996091899010683  1.0000
  Mo  Mo1       1.0  0.12558959313745696  0.12455873709838154  0.6233896235306493  1.0000
  Nb  Nb1       1.0  0.0008187083997068452  0.0006048634155905328  0.7464492734443949  1.0000
  Ta  Ta1       1.0  0.12198779881334709  0.1290362502868237  0.876218844263637  1.0000
  Mo  Mo2       1.0  0.9997838615688903  0.25160106478938676  0.001981489823804109  1.0000
  W   W6        1.0  0.12497785379829351  0.37648938956343475  0.1275021266135434  1.0000
  W   W7        1.0  0.0005560751938639465  0.2501249394762001  0.24843045993327065  1.0000
  W   W8        1.0  0.12346858462822924  0.3739977047270288  0.374188739783575  1.0000
  Ta  Ta2       1.0  0.9993790541528829  0.2497962735165442  0.5024685037369364  1.0000
  W   W9        1.0  0.12303218376149118  0.3735481885772324  0.6266832557095864  1.0000
  Mo  Mo3       1.0  0.9989339189015379  0.2522200484601742  0.7529554557032053  1.0000
  W   W10       1.0  0.12235585095127952  0.37619617771527974  0.8760694225779031  1.0000
  W   W11       1.0  0.001716809742537571  0.5006879490340392  0.0018152221323235443  1.0000
  Mo  Mo4       1.0  0.12859646543342718  0.6248232534542862  0.1288955794343532  1.0000
  W   W12       1.0  0.9994643308110529  0.49779161630086977  0.25005349562292967  1.0000
  W   W13       1.0  0.12230613281031989  0.6244441799311016  0.3784913377744428  1.0000
  W   W14       1.0  0.9988852278703179  0.5001933803571186  0.5002632675376328  1.0000
  W   W15       1.0  0.1218927892463385  0.6266071362326577  0.6229705722489585  1.0000
  W   W16       1.0  0.999046847650862  0.5011810365392876  0.7511851821908628  1.0000
  Mo  Mo5       1.0  0.12360210387326792  0.6255834246708216  0.8759120281025874  1.0000
  Mo  Mo6       1.0  0.9994903023819621  0.7495416525774521  0.9986799289462979  1.0000
  W   W17       1.0  0.12711814426409734  0.8724976793150058  0.12438864571856972  1.0000
  Nb  Nb2       1.0  0.0015659753316501616  0.7457946311356669  0.2486514375372022  1.0000
  Ta  Ta3       1.0  0.12572969011664853  0.8699882395536855  0.37780312399674076  1.0000
  Mo  Mo7       1.0  0.9996826419152726  0.7504597802876367  0.5017078798612699  1.0000
  W   W18       1.0  0.12802089232928762  0.8710590857398016  0.6219521733298013  1.0000
  W   W19       1.0  0.0001127627634732481  0.748193838242322  0.7497002995784048  1.0000
  W   W20       1.0  0.12282069419393736  0.8749734150092732  0.8782383489073159  1.0000
  W   W21       1.0  0.24995439190982488  0.9982056126747079  4.952348192170723e-05  1.0000
  W   W22       1.0  0.3776189833562122  0.12477202040322166  0.12429969896827747  1.0000
  Ta  Ta4       1.0  0.25106219167265054  0.9984136324681967  0.24969321860444346  1.0000
  W   W23       1.0  0.3748218297379782  0.12326076757664703  0.3720366298494138  1.0000
  W   W24       1.0  0.24964930548495162  0.9983013930913832  0.5001040343408814  1.0000
  Nb  Nb3       1.0  0.3755130551087809  0.12630329821238737  0.6217433030817308  1.0000
  Ta  Ta5       1.0  0.25144387183965095  0.0003514184496330091  0.7506719502850359  1.0000
  W   W25       1.0  0.37619252837829603  0.12582483220057628  0.8766449977855884  1.0000
  Ta  Ta6       1.0  0.2511709598626027  0.2520544548441506  0.0024073834240186027  1.0000
  W   W26       1.0  0.37596305988218337  0.37592261964137896  0.12488642011186546  1.0000
  W   W27       1.0  0.24961995967079315  0.2497879460106494  0.25060804579856766  1.0000
  W   W28       1.0  0.3736037631819264  0.367484596030162  0.3746622029601148  1.0000
  Mo  Mo8       1.0  0.25044599741960616  0.250718354935173  0.49964055441641203  1.0000
  W   W29       1.0  0.3774600067656565  0.3851239955980498  0.6140984280458351  1.0000
  W   W30       1.0  0.2511031963279107  0.2544465825117761  0.7470618831000855  1.0000
  W   W31       1.0  0.3740680733264662  0.37534673794732  0.8742206995224405  1.0000
  W   W32       1.0  0.24818130686580303  0.5018002274452549  0.0010024570847161102  1.0000
  W   W33       1.0  0.37750054577676156  0.6250537725881082  0.12196914715534128  1.0000
  Ta  Ta7       1.0  0.2562428600719186  0.5051348319068837  0.25727225728451575  1.0000
  Nb  Nb4       1.0  0.42690382648628833  0.5735006294169019  0.430419815987801  1.0000
  W   W34       1.0  0.2396266636086553  0.49740934527706315  0.5025576099249944  1.0000
  Mo  Mo9       1.0  0.37556864032201204  0.6256502080144742  0.6319648044972676  1.0000
  Nb  Nb5       1.0  0.24922160827571146  0.4998879493166048  0.7502049306929027  1.0000
  W   W35       1.0  0.37663346934249947  0.6238670364173028  0.8800246495315052  1.0000
  W   W36       1.0  0.24848276967724184  0.7485518436405951  0.001976832777516059  1.0000
  Nb  Nb6       1.0  0.37661197237166966  0.870123037848316  0.12735526872760197  1.0000
  W   W37       1.0  0.25901953597947247  0.7397925349005631  0.2587164214488359  1.0000
  Mo  Mo10      1.0  0.3765685589433053  0.8748061410001255  0.3758213096313525  1.0000
  W   W38       1.0  0.26077393670579796  0.7390149456109247  0.49641988712800456  1.0000
  W   W39       1.0  0.3742603763460465  0.8755277433462507  0.6214444411419638  1.0000
  Ta  Ta8       1.0  0.2494143338280222  0.7495198390018577  0.7517069943719557  1.0000
  Mo  Mo11      1.0  0.3737431712001823  0.8754543687670018  0.875318779277001  1.0000
  W   W40       1.0  0.49882687190523106  0.9986633472003202  2.643970142374137e-05  1.0000
  W   W41       1.0  0.6249709015625602  0.12316858759487341  0.1263914756994925  1.0000
  W   W42       1.0  0.5021388026991356  0.999374949313109  0.2507860895425095  1.0000
  W   W43       1.0  0.6255182651707416  0.12419769757763822  0.3729736141306056  1.0000
  Mo  Mo12      1.0  0.500707465365796  0.0005108406946967542  0.49965961999847286  1.0000
  W   W44       1.0  0.6283335973335473  0.12471793628803172  0.6227543483681338  1.0000
  W   W45       1.0  0.499734335295367  0.9988551393937074  0.7498269975090649  1.0000
  Ta  Ta9       1.0  0.6256085951656988  0.1220767102019668  0.8731075635603092  1.0000
  W   W46       1.0  0.4996766031592253  0.2497542800757548  0.0013820377457709658  1.0000
  W   W47       1.0  0.6263711828020335  0.3750111706627077  0.12619315755197139  1.0000
  W   W48       1.0  0.4999504102011248  0.25045418120077895  0.24750096392827342  1.0000
  Mo  Mo13      1.0  0.61727602129241  0.3847474489709749  0.3768473195948514  1.0000
  Ta  Ta10      1.0  0.5012942839265192  0.24874470143128727  0.49323826734060544  1.0000
  Ta  Ta11      1.0  0.6190188124941621  0.3880534656642967  0.6162019059642541  1.0000
  Ta  Ta12      1.0  0.49734218596632485  0.25260570890440404  0.7464230885819814  1.0000
  Ta  Ta13      1.0  0.6256451360207951  0.3781847084753479  0.8742836163524845  1.0000
  W   W49       1.0  0.4996337658600522  0.4993580208313553  0.0007149499332699461  1.0000
  W   W50       1.0  0.6249782680133473  0.6259272161501241  0.12540500029733567  1.0000
  W   W51       1.0  0.5022683332504523  0.49802337011745684  0.24268263341529112  1.0000
  W   W52       1.0  0.6317629139793572  0.6246565013469565  0.3752038990523576  1.0000
  W   W53       1.0  0.6175449104084295  0.6225021613614283  0.614700515570082  1.0000
  Mo  Mo14      1.0  0.5003421047469814  0.5008719394576912  0.7538440636628678  1.0000
  W   W54       1.0  0.6269324539182157  0.6246871331761152  0.8741033599147057  1.0000
  W   W55       1.0  0.5011250879883443  0.749329251926436  0.0003938898002710825  1.0000
  W   W56       1.0  0.6223213459387241  0.8716455299205333  0.12767764568863563  1.0000
  W   W57       1.0  0.49692000915601636  0.7404943122358663  0.2595700261015061  1.0000
  W   W58       1.0  0.6261603398310331  0.8754860265342954  0.37355972238906854  1.0000
  W   W59       1.0  0.5027238146851485  0.759216288978183  0.5009134758937519  1.0000
  W   W60       1.0  0.626527452520606  0.8792146185368815  0.6243329731240831  1.0000
  Ta  Ta14      1.0  0.5006313747728496  0.7511153806408967  0.7499297777601075  1.0000
  Mo  Mo15      1.0  0.6242289822633559  0.8732650869668336  0.8758820498431203  1.0000
  W   W61       1.0  0.7476533203409002  0.9986282564378606  0.0021810858045904157  1.0000
  W   W62       1.0  0.8749171318381916  0.1259108609500652  0.12494284061094262  1.0000
  W   W63       1.0  0.7487947317136366  0.9997477379020592  0.24826549869289588  1.0000
  Ta  Ta15      1.0  0.8723872856804042  0.12338397044257562  0.3738110668821102  1.0000
  Mo  Mo16      1.0  0.7508913818152088  0.0006873819917989374  0.49786239156337486  1.0000
  Mo  Mo17      1.0  0.8727547476852922  0.12867955722646052  0.6258436615908609  1.0000
  Mo  Mo18      1.0  0.7490756042685158  0.0007501655554066622  0.7512815616721241  1.0000
  W   W64       1.0  0.873944226848944  0.1263085441007159  0.8753960578747348  1.0000
  Ta  Ta16      1.0  0.7523047342303878  0.2500476948936674  0.001907038247660305  1.0000
  W   W65       1.0  0.8758313327209554  0.3754129961591337  0.12646953986168252  1.0000
  W   W66       1.0  0.746187090088132  0.25324502655840625  0.2531673031670869  1.0000
  W   W67       1.0  0.8732722527523056  0.3748986510003369  0.3740629494381139  1.0000
  W   W68       1.0  0.7469784805943547  0.25412287293749697  0.4991258538907634  1.0000
  W   W69       1.0  0.8740063483773732  0.3772052117689037  0.627045340372462  1.0000
  W   W70       1.0  0.7500005462850792  0.2529772523778973  0.7451675212320006  1.0000
  W   W71       1.0  0.8764760515233229  0.3770637458239809  0.8743079852446533  1.0000
  W   W72       1.0  0.7516904880825854  0.5015699189207241  0.0004881153761966585  1.0000
  W   W73       1.0  0.8743960240927373  0.6232776203335534  0.12286251576394439  1.0000
  W   W74       1.0  0.7509001874222326  0.4994090726178553  0.24989473138303764  1.0000
  Mo  Mo19      1.0  0.8759763624354316  0.6252129847582286  0.3733286939909614  1.0000
  W   W75       1.0  0.7574184276607692  0.5017201068220716  0.49766120785976975  1.0000
  W   W76       1.0  0.8732439833717677  0.6256984853403035  0.625687438946264  1.0000
  W   W77       1.0  0.7500857222038555  0.5032803740754187  0.7476907523792009  1.0000
  W   W78       1.0  0.8741717965972318  0.6242554233736523  0.8751844071518766  1.0000
  W   W79       1.0  0.74670373350612  0.7481064957776641  0.9995940316408506  1.0000
  Ta  Ta17      1.0  0.8750814533246093  0.8743878169517676  0.12423334512639359  1.0000
  W   W80       1.0  0.7479971012454698  0.7486731759240344  0.25065507667687714  1.0000
  W   W81       1.0  0.8735688596803077  0.8744146440054825  0.37472211241815073  1.0000
  W   W82       1.0  0.7486041154431125  0.7481477846702332  0.49994498616028904  1.0000
  Nb  Nb7       1.0  0.8733456151864694  0.8750609816009164  0.6217029364039924  1.0000
  W   W83       1.0  0.7469403699540017  0.7464162292799874  0.7466830667540805  1.0000
  Ta  Ta18      1.0  0.8730611632864643  0.8736243091536195  0.8746356499786272  1.0000
