data_image0
_chemical_formula_structural       TaNbW2Mo2NbTa2WNbMoWTa2MoWNb2MoWTaNbWMo3W2NbW2Ta2NbMoNbW3MoNbMo3TaWNbTaWTa2NbMoNbW3NbMo3WMoNbMoNb2WMoNb2Mo2WMoW2NbTaWMoTaMoWMo3NbMoWMoWMo6WMoTaMoTaMoTaW3Mo2WMoNbMoNbWMo2NbMoWMo2WTaMo
_chemical_formula_sum              "Ta18 Nb24 W36 Mo49"
_cell_length_a       12.8
_cell_length_b       12.8
_cell_length_c       12.8
_cell_angle_alpha    90.0
_cell_angle_beta     90.0
_cell_angle_gamma    90.0

_space_group_name_H-M_alt    "P 1"
_space_group_IT_number       1

loop_
  _space_group_symop_operation_xyz
  'x, y, z'

loop_
  _atom_site_type_symbol
  _atom_site_label
  _atom_site_symmetry_multiplicity
  _atom_site_fract_x
  _atom_site_fract_y
  _atom_site_fract_z
  _atom_site_occupancy
  Ta  Ta1       1.0  0.9952966391313873  0.9968745720791984  0.0033339243966393033  1.0000
  Nb  Nb1       1.0  0.12552285089890686  0.12684008474322667  0.12747991325413577  1.0000
  W   W1        1.0  0.997878109769149  0.9984052658693153  0.25179308307217757  1.0000
  W   W2        1.0  0.12448226180839088  0.12464041101859662  0.3778235089258347  1.0000
  Mo  Mo1       1.0  0.9984593925654308  0.00020912433340615906  0.49828308788946957  1.0000
  Mo  Mo2       1.0  0.12601605607463973  0.12570626658682316  0.6239487875543146  1.0000
  Nb  Nb2       1.0  0.9988357256887658  0.9986790087304681  0.7480778923469046  1.0000
  Ta  Ta2       1.0  0.12835654411382677  0.12441460528174214  0.8735542489112841  1.0000
  Ta  Ta3       1.0  0.9965097020518031  0.253380416361477  0.999296296983713  1.0000
  W   W3        1.0  0.1251510708564752  0.3744542195972492  0.12548527526828093  1.0000
  Nb  Nb3       1.0  0.9981186908704882  0.2479434897217742  0.2527905809548275  1.0000
  Mo  Mo3       1.0  0.12397118711802003  0.37291272920103585  0.3744337167274575  1.0000
  W   W4        1.0  0.9978463080953317  0.24867841904693755  0.4993322083003218  1.0000
  Ta  Ta4       1.0  0.1245620217611035  0.37338615284731874  0.6228901598782505  1.0000
  Ta  Ta5       1.0  0.9952436213904056  0.2482977772040547  0.7487929874741205  1.0000
  Mo  Mo4       1.0  0.12447580835073614  0.3766450733914564  0.875228726883383  1.0000
  W   W5        1.0  0.9969080736722556  0.4999164863128337  0.9996506069598787  1.0000
  Nb  Nb4       1.0  0.12192679816876896  0.6276816219478986  0.12346841627643033  1.0000
  Nb  Nb5       1.0  0.9992463162088692  0.5013088864801386  0.25190457036073466  1.0000
  Mo  Mo5       1.0  0.12475767360096926  0.6272152837501977  0.37550560060153476  1.0000
  W   W6        1.0  0.998003471397361  0.4998419254706283  0.4979693006475841  1.0000
  Ta  Ta6       1.0  0.1241995141470653  0.6281613563802896  0.6249404634931379  1.0000
  Nb  Nb6       1.0  0.9957896444498153  0.5010509946314765  0.7519504927044829  1.0000
  W   W7        1.0  0.12484478656738678  0.6284812127701057  0.8745282661155724  1.0000
  Mo  Mo6       1.0  0.001143432807142524  0.7490374118014266  0.9987353780773924  1.0000
  Mo  Mo7       1.0  0.1246883105267467  0.8751411848635272  0.12584584225650047  1.0000
  Mo  Mo8       1.0  0.9975100928345346  0.7525510158087217  0.2508191463508455  1.0000
  W   W8        1.0  0.1212423053299294  0.8749714105578998  0.37629572586901283  1.0000
  W   W9        1.0  0.9963615805487951  0.7493888031055779  0.4980000909429192  1.0000
  Nb  Nb7       1.0  0.12381340114360011  0.8743711475973266  0.6228348638984925  1.0000
  W   W10       1.0  0.9978501410945664  0.7510234054344225  0.7510450078207789  1.0000
  W   W11       1.0  0.1244753438505742  0.8714303749870773  0.8734097931991727  1.0000
  Ta  Ta7       1.0  0.25025009708373813  0.9939055290764155  0.999397680738618  1.0000
  Ta  Ta8       1.0  0.3765665251279324  0.1278288699739781  0.12420013121975047  1.0000
  Nb  Nb8       1.0  0.24810117520022573  0.9990193904663163  0.25165638483850955  1.0000
  Mo  Mo9       1.0  0.37378456916233754  0.12685774873500694  0.37645150187922005  1.0000
  Nb  Nb9       1.0  0.2533102393587585  0.9994453050041066  0.5007171516539387  1.0000
  W   W12       1.0  0.3737333647384379  0.12692234370680008  0.6245528513132734  1.0000
  W   W13       1.0  0.25169329321700484  0.9988116934513479  0.7495723028711292  1.0000
  W   W14       1.0  0.37462749561690295  0.12547311528355945  0.8738612449846634  1.0000
  Mo  Mo10      1.0  0.24924124116316834  0.24920814842154448  0.998545663306355  1.0000
  Nb  Nb10      1.0  0.37503978415000555  0.37401382289657614  0.1253574643799557  1.0000
  Mo  Mo11      1.0  0.2514757916984247  0.2507252032121459  0.2522964374978117  1.0000
  Mo  Mo12      1.0  0.3790420835912945  0.37802526692205435  0.3783734742269204  1.0000
  Mo  Mo13      1.0  0.25129182929284577  0.25112676985804605  0.5002862601482528  1.0000
  Ta  Ta9       1.0  0.38347989944070104  0.380226781960025  0.6163850574354799  1.0000
  W   W15       1.0  0.25139621922963784  0.24958830770126603  0.7476157313342192  1.0000
  Nb  Nb11      1.0  0.3772866021848793  0.37388086745475735  0.8743868358386858  1.0000
  Ta  Ta10      1.0  0.24851318316859158  0.5023252132221829  0.9992814919577601  1.0000
  W   W16       1.0  0.3775918169488957  0.6269463734521158  0.12480623506549028  1.0000
  Ta  Ta11      1.0  0.2509843115026557  0.49978603050153125  0.2528591090794139  1.0000
  Ta  Ta12      1.0  0.3843394238478823  0.6263365658082616  0.38349444492710777  1.0000
  Nb  Nb12      1.0  0.24725501186176393  0.5005157510616286  0.4955753972122401  1.0000
  Mo  Mo14      1.0  0.3789842886630415  0.6231050279088355  0.6234585786377235  1.0000
  Nb  Nb13      1.0  0.25323645316551113  0.5020930165550229  0.7496542435891018  1.0000
  W   W17       1.0  0.37730004892989666  0.627469430602604  0.8742840051609442  1.0000
  W   W18       1.0  0.2509261211817302  0.7499978929042161  0.9985727532795391  1.0000
  W   W19       1.0  0.3777989647607225  0.8716672319331875  0.12575601849433768  1.0000
  Nb  Nb14      1.0  0.2500380515463866  0.7498775743570957  0.2515583495171064  1.0000
  Mo  Mo15      1.0  0.37529769907600763  0.8745444583674861  0.3746107166685194  1.0000
  Mo  Mo16      1.0  0.25096323015471783  0.7489511666974054  0.5016923208317667  1.0000
  Mo  Mo17      1.0  0.37618465346728946  0.873861847464485  0.6246515052373889  1.0000
  W   W20       1.0  0.2534744693014476  0.7515726501985304  0.7506228308640517  1.0000
  Mo  Mo18      1.0  0.37414922444103305  0.8741915998041111  0.8749521515990689  1.0000
  Nb  Nb15      1.0  0.5016255229169457  0.9968686218320562  0.9983984950274987  1.0000
  Mo  Mo19      1.0  0.6248920510323795  0.12515665006540055  0.12589455276551612  1.0000
  Nb  Nb16      1.0  0.4995332276983752  0.9995676807215548  0.25425735066314464  1.0000
  Nb  Nb17      1.0  0.6272467254468495  0.12160780737167198  0.37595840776762984  1.0000
  W   W21       1.0  0.500629097637217  0.998990612145027  0.501203111644472  1.0000
  Mo  Mo20      1.0  0.6243801196596339  0.12457120410767464  0.623872347991853  1.0000
  Nb  Nb18      1.0  0.49816739467999244  0.9953418354144303  0.7465657093357815  1.0000
  Nb  Nb19      1.0  0.6239452681283628  0.12603625237691407  0.8756139574064861  1.0000
  Mo  Mo21      1.0  0.5015340818386378  0.25140132578367286  0.0009669410769755529  1.0000
  Mo  Mo22      1.0  0.6259480213724621  0.37530255067585283  0.12456142769509446  1.0000
  W   W22       1.0  0.501137380213079  0.2530381674867091  0.25434867836113784  1.0000
  Mo  Mo23      1.0  0.6230050800163154  0.3769411803181863  0.3800786687661939  1.0000
  W   W23       1.0  0.5021783145949449  0.24699057194504284  0.4967699445037133  1.0000
  W   W24       1.0  0.6231598053763385  0.3792401256004714  0.6218179546075168  1.0000
  Nb  Nb20      1.0  0.5012323391752082  0.24907846232465614  0.7453200081540677  1.0000
  Ta  Ta13      1.0  0.6270462523461439  0.3793302495260512  0.8708815650310744  1.0000
  W   W25       1.0  0.5025685829777192  0.5030764618768373  0.001241548650421404  1.0000
  Mo  Mo24      1.0  0.6251604499912277  0.6253759422248105  0.12460728403856793  1.0000
  Ta  Ta14      1.0  0.5049743865716851  0.4981289455468965  0.25045020385393874  1.0000
  Mo  Mo25      1.0  0.6221660038555736  0.6246598214621044  0.3788836250777053  1.0000
  W   W26       1.0  0.619446968935548  0.622368238500332  0.622586031471128  1.0000
  Mo  Mo26      1.0  0.5008245771970872  0.5014924022621579  0.7503318792797209  1.0000
  Mo  Mo27      1.0  0.6242564298105682  0.6251322789832439  0.8744358403646325  1.0000
  Mo  Mo28      1.0  0.49907815057464605  0.7488382182268604  0.999729503365222  1.0000
  Nb  Nb21      1.0  0.6268201946727214  0.8732766830298416  0.12819714052198086  1.0000
  Mo  Mo29      1.0  0.5026135975260705  0.7480806476931683  0.25138596082108006  1.0000
  W   W27       1.0  0.6264852878744275  0.8723915734127191  0.37673399725640855  1.0000
  Mo  Mo30      1.0  0.5015058185389312  0.7523189354016024  0.5016390622897858  1.0000
  W   W28       1.0  0.6255992594447236  0.8723473692107342  0.6213207890565682  1.0000
  Mo  Mo31      1.0  0.5001078630902207  0.7475897562089051  0.7481362054305029  1.0000
  Mo  Mo32      1.0  0.6255811250250027  0.8736683117120536  0.87334968143423  1.0000
  Mo  Mo33      1.0  0.7495371168438851  0.9996056208372353  0.0006357377111304909  1.0000
  Mo  Mo34      1.0  0.8742467637572493  0.12348377405355093  0.12645361545971295  1.0000
  Mo  Mo35      1.0  0.752018315470544  0.9970507377836816  0.2508972467256829  1.0000
  Mo  Mo36      1.0  0.8751611196403687  0.12492760266616568  0.3756842744354839  1.0000
  W   W29       1.0  0.751406459887498  0.9989424270314764  0.5006942699456927  1.0000
  Mo  Mo37      1.0  0.8740229176650685  0.12526349025107403  0.6232116500533463  1.0000
  Ta  Ta15      1.0  0.7510241854505552  0.9999314542398926  0.7482513273851455  1.0000
  Mo  Mo38      1.0  0.8746803870947606  0.12473529850155583  0.8747887695613832  1.0000
  Ta  Ta16      1.0  0.7531620180828258  0.2514425959193164  0.002843297039545935  1.0000
  Mo  Mo39      1.0  0.8753375036475658  0.37704803709132384  0.1267012399840911  1.0000
  Ta  Ta17      1.0  0.7479799660498708  0.25176550042057505  0.25125355277380546  1.0000
  W   W30       1.0  0.8744072926717338  0.37455042409131856  0.3778581912326326  1.0000
  W   W31       1.0  0.7494331377879536  0.2502988048910755  0.5017125882139896  1.0000
  W   W32       1.0  0.871432570169879  0.3755721274758314  0.6239026321238739  1.0000
  Mo  Mo40      1.0  0.7486664055882264  0.25191043053504686  0.7470508335751475  1.0000
  Mo  Mo41      1.0  0.8731348148748352  0.3759241147980109  0.8739685067556996  1.0000
  W   W33       1.0  0.7512490736482113  0.5024156681861752  0.9999262324847511  1.0000
  Mo  Mo42      1.0  0.8741748336399926  0.6260806064961532  0.12476258941933362  1.0000
  Nb  Nb22      1.0  0.7485142317741224  0.5031281422669358  0.24867104695919465  1.0000
  Mo  Mo43      1.0  0.8745738354783661  0.625209553807074  0.3754624946892679  1.0000
  Nb  Nb23      1.0  0.7487130804641162  0.5018276121860966  0.4984397597089705  1.0000
  W   W34       1.0  0.873362710658857  0.62578501161288  0.623776271565545  1.0000
  Mo  Mo44      1.0  0.7475589293141122  0.5010472110969386  0.7479480962496289  1.0000
  Mo  Mo45      1.0  0.8751978887097036  0.6248431992797666  0.8750333872071593  1.0000
  Nb  Nb24      1.0  0.7514593719391116  0.7476219400888178  0.0009487030841176038  1.0000
  Mo  Mo46      1.0  0.874268493643441  0.8730673495369151  0.1265071668408951  1.0000
  W   W35       1.0  0.7504418294168647  0.7480390517491052  0.2534605646337269  1.0000
  Mo  Mo47      1.0  0.8737860442291506  0.8751111503918957  0.37543632659076426  1.0000
  Mo  Mo48      1.0  0.7489838750290603  0.7492485017917332  0.4998262287619232  1.0000
  W   W36       1.0  0.8742089520230211  0.8729380757659533  0.620982884840699  1.0000
  Ta  Ta18      1.0  0.748565685295392  0.7472223463065382  0.7502736047599456  1.0000
  Mo  Mo49      1.0  0.8755967656481736  0.8744121168947327  0.8741647374584804  1.0000
