data_image0
_chemical_formula_structural       TaNbMoNb5TaMoNb2TaNbMoNb9TaNb3TaNb9TaNb3MoNb2MoNbMoNbW2Nb3Ta2Nb2MoTaMoNb11TaNbMoNb7TaNb8TaNb2MoNb2Mo3TaNbTaWNb7TaMo2NbMoNbMoNb8Mo
_chemical_formula_sum              "Ta15 Nb91 Mo18 W3"
_cell_length_a       12.8
_cell_length_b       12.8
_cell_length_c       12.8
_cell_angle_alpha    90.0
_cell_angle_beta     90.0
_cell_angle_gamma    90.0

_space_group_name_H-M_alt    "P 1"
_space_group_IT_number       1

loop_
  _space_group_symop_operation_xyz
  'x, y, z'

loop_
  _atom_site_type_symbol
  _atom_site_label
  _atom_site_symmetry_multiplicity
  _atom_site_fract_x
  _atom_site_fract_y
  _atom_site_fract_z
  _atom_site_occupancy
  Ta  Ta1       1.0  0.9992961052665006  0.9987437651731621  0.0007459410262074332  1.0000
  Nb  Nb1       1.0  0.12605719939881713  0.12691266285231156  0.12748002904915434  1.0000
  Mo  Mo1       1.0  0.999798679732253  0.9991691348099475  0.25041585534884575  1.0000
  Nb  Nb2       1.0  0.12524376873015222  0.12475285862879595  0.3731127323380224  1.0000
  Nb  Nb3       1.0  0.9978867760787243  0.0003345481337553051  0.49709036109585186  1.0000
  Nb  Nb4       1.0  0.12344365472698146  0.12645236591334438  0.6253182424455233  1.0000
  Nb  Nb5       1.0  0.9994219949810881  0.9980153177011988  0.7504519644806956  1.0000
  Nb  Nb6       1.0  0.12337891793547998  0.12723576200908956  0.874296833868774  1.0000
  Ta  Ta2       1.0  0.9985931416361126  0.2519448324901938  0.003289560881846014  1.0000
  Mo  Mo2       1.0  0.1237501621614242  0.3751444848510682  0.12491179596194188  1.0000
  Nb  Nb7       1.0  0.0002702129204044008  0.24935593691158361  0.25035592912192  1.0000
  Nb  Nb8       1.0  0.12871343117359577  0.37476542996477624  0.3704112098684445  1.0000
  Ta  Ta3       1.0  0.9989730860425895  0.25006100050509145  0.497646931861521  1.0000
  Nb  Nb9       1.0  0.12516089247813644  0.3736287021849729  0.6249582296013885  1.0000
  Mo  Mo3       1.0  0.9994730159439064  0.2500186094765195  0.7497982072824401  1.0000
  Nb  Nb10      1.0  0.1243255252528398  0.3747261957750225  0.8743135958297867  1.0000
  Nb  Nb11      1.0  0.9997430736904087  0.5006497755589784  0.002134817747966769  1.0000
  Nb  Nb12      1.0  0.12817341850926345  0.6246163017944552  0.12752461208671145  1.0000
  Nb  Nb13      1.0  0.9997460586255045  0.5002037213662835  0.24793034601239036  1.0000
  Nb  Nb14      1.0  0.12490103798349242  0.6262224709471469  0.3740986998768702  1.0000
  Nb  Nb15      1.0  0.0006473743953326583  0.4987684739104306  0.4994678533371313  1.0000
  Nb  Nb16      1.0  0.1265809904388403  0.6259146927850872  0.623615100992517  1.0000
  Nb  Nb17      1.0  0.000881138755108504  0.4999860475089122  0.7497143996581995  1.0000
  Nb  Nb18      1.0  0.12627792805673982  0.6243658128675633  0.8743895556816038  1.0000
  Ta  Ta4       1.0  0.9970899938784465  0.7493624202914098  0.0016207955548222831  1.0000
  Nb  Nb19      1.0  0.12408810222895682  0.8755652642992006  0.1278179680417433  1.0000
  Nb  Nb20      1.0  0.9971364853991388  0.749703426748086  0.24965217052695615  1.0000
  Nb  Nb21      1.0  0.12592507678275694  0.8735986576689403  0.37401033537804973  1.0000
  Ta  Ta5       1.0  0.9968567864792317  0.750050738149678  0.49858221877661707  1.0000
  Nb  Nb22      1.0  0.12460870239756906  0.8742584149082301  0.623128483751226  1.0000
  Nb  Nb23      1.0  0.9985233971232453  0.7508666830999934  0.7501175601840225  1.0000
  Nb  Nb24      1.0  0.12530802309008626  0.873359074792151  0.874735643421915  1.0000
  Nb  Nb25      1.0  0.2500849021962536  2.9078842365989796e-05  0.00013178132935160093  1.0000
  Nb  Nb26      1.0  0.3747384302153989  0.1264644473393568  0.12632626649411935  1.0000
  Nb  Nb27      1.0  0.24957332235262752  0.0006465844907248079  0.2493466031854573  1.0000
  Nb  Nb28      1.0  0.37495645532638466  0.12867355846810455  0.3721048140021346  1.0000
  Nb  Nb29      1.0  0.249175141449548  0.0011841977772684659  0.5001244997512583  1.0000
  Nb  Nb30      1.0  0.3751591464653186  0.12723331736058777  0.6248071822257699  1.0000
  Ta  Ta6       1.0  0.24975874875735016  0.0003578806017986931  0.7499622096784787  1.0000
  Nb  Nb31      1.0  0.37522138779521785  0.12644701816322695  0.8750343172916181  1.0000
  Nb  Nb32      1.0  0.24911995750562693  0.25190320107652076  0.0007225118342719884  1.0000
  Nb  Nb33      1.0  0.3715319547052168  0.3735574854979309  0.12944752637476212  1.0000
  Mo  Mo4       1.0  0.252109394698487  0.25305750091377627  0.25210330925201374  1.0000
  Nb  Nb34      1.0  0.38480806486289704  0.384203560051665  0.38233352383227526  1.0000
  Nb  Nb35      1.0  0.2523381637800937  0.2528353409979943  0.49941830776491897  1.0000
  Mo  Mo5       1.0  0.38131146316489756  0.3806741829570066  0.6182349642744218  1.0000
  Nb  Nb36      1.0  0.25314661938097205  0.25398199356645507  0.7489622552492108  1.0000
  Mo  Mo6       1.0  0.3745535499456597  0.37519958657124175  0.8754053262852206  1.0000
  Nb  Nb37      1.0  0.2501656846523614  0.4981742538139141  0.0022291498606684464  1.0000
  W   W1        1.0  0.37525180552280707  0.6260606102729578  0.1253560639272306  1.0000
  W   W2        1.0  0.25068616721962056  0.49881469717625915  0.24963710025241798  1.0000
  Nb  Nb38      1.0  0.3659114878581631  0.6277597111313791  0.3716094273044268  1.0000
  Nb  Nb39      1.0  0.24961957024135936  0.4996154912480343  0.49915642527358073  1.0000
  Nb  Nb40      1.0  0.386483211953449  0.6154026285984825  0.6138217166848532  1.0000
  Ta  Ta7       1.0  0.25451449256659286  0.4976600124579905  0.7471746777967253  1.0000
  Ta  Ta8       1.0  0.37531521139312635  0.6252295185409269  0.8764575917423443  1.0000
  Nb  Nb41      1.0  0.24945553313438734  0.7499626380178774  0.0016249651341386539  1.0000
  Nb  Nb42      1.0  0.3759689950878717  0.8692761284402062  0.129545604704359  1.0000
  Mo  Mo7       1.0  0.24913674093245644  0.7489661983134465  0.2491949646926134  1.0000
  Ta  Ta9       1.0  0.3726446041708027  0.8734788446401558  0.3738103839455089  1.0000
  Mo  Mo8       1.0  0.2501843074785147  0.7491713446587451  0.5004662967054626  1.0000
  Nb  Nb43      1.0  0.37381027404451883  0.8735585315180108  0.6233031650057028  1.0000
  Nb  Nb44      1.0  0.2526617587761844  0.7469809524282632  0.7463520497050707  1.0000
  Nb  Nb45      1.0  0.37545607660431723  0.8739239578138401  0.8752963086218284  1.0000
  Nb  Nb46      1.0  0.4999792943776707  0.9986061247537836  0.0006386327642926081  1.0000
  Nb  Nb47      1.0  0.6252581335423986  0.12497445019453146  0.12582806920245349  1.0000
  Nb  Nb48      1.0  0.49978324602930857  0.9998301585265277  0.24960590635536317  1.0000
  Nb  Nb49      1.0  0.6283544781786544  0.12328764395906591  0.37379466780745524  1.0000
  Nb  Nb50      1.0  0.499635806576138  0.001617594228931915  0.5001670220524058  1.0000
  Nb  Nb51      1.0  0.6265541678117205  0.12521246373577674  0.6249205425272321  1.0000
  Nb  Nb52      1.0  0.5004251491742099  0.9994653627758795  0.7509822713573759  1.0000
  Nb  Nb53      1.0  0.6257564941435199  0.12592921796242637  0.8752048574509473  1.0000
  Ta  Ta10      1.0  0.4998945692597039  0.25179987813464005  0.9995078011706705  1.0000
  Nb  Nb54      1.0  0.626562946956175  0.373468335499044  0.12675873944281893  1.0000
  Mo  Mo9       1.0  0.49965186607038214  0.25073648456179537  0.25014358846465806  1.0000
  Nb  Nb55      1.0  0.6269891684782563  0.3690398022903766  0.37091952552866403  1.0000
  Nb  Nb56      1.0  0.5009875948759244  0.25009913996031874  0.4994976700536546  1.0000
  Nb  Nb57      1.0  0.6184305534812556  0.3866615418843118  0.613553928896236  1.0000
  Nb  Nb58      1.0  0.49943998161488484  0.2545326438992299  0.7475631864577807  1.0000
  Nb  Nb59      1.0  0.6271098712883029  0.37572419065938323  0.8739300217984833  1.0000
  Nb  Nb60      1.0  0.4983278978964051  0.49777014341780695  0.0003066092321611113  1.0000
  Nb  Nb61      1.0  0.6258169964065481  0.6235598697138514  0.12319462469814907  1.0000
  Ta  Ta11      1.0  0.49817506067697104  0.5017274867524589  0.24450399778522483  1.0000
  Nb  Nb62      1.0  0.5599142522166172  0.555029782864953  0.4435042801477518  1.0000
  Nb  Nb63      1.0  0.6284657550399247  0.6238269217639002  0.6330828774157026  1.0000
  Nb  Nb64      1.0  0.49868728757212155  0.497698421078418  0.7517231634399756  1.0000
  Nb  Nb65      1.0  0.625637107091173  0.6249610024000487  0.8755488627573302  1.0000
  Nb  Nb66      1.0  0.5016455650922027  0.7503366809469736  0.001998901191890767  1.0000
  Nb  Nb67      1.0  0.625677631643915  0.8737361715576757  0.1285938179414792  1.0000
  Nb  Nb68      1.0  0.5083538850323558  0.7387442493706906  0.26139605578362  1.0000
  Nb  Nb69      1.0  0.6267099244963086  0.8808591036902601  0.37500979602433365  1.0000
  Ta  Ta12      1.0  0.5020341138961799  0.753807929370822  0.49881987801159494  1.0000
  Nb  Nb70      1.0  0.6275577187191616  0.8755393876717993  0.6239873742010339  1.0000
  Nb  Nb71      1.0  0.5003831176155868  0.7503399920679942  0.7492033177509421  1.0000
  Mo  Mo10      1.0  0.6247042177971142  0.8751628038732712  0.8763021117269486  1.0000
  Nb  Nb72      1.0  0.7498926774308529  0.9990774087738024  0.9996267414752548  1.0000
  Nb  Nb73      1.0  0.8746319380264398  0.122189331766514  0.12779133029915063  1.0000
  Mo  Mo11      1.0  0.7504230558128012  0.9993171587155559  0.24968966597383174  1.0000
  Mo  Mo12      1.0  0.8758601846012825  0.1253683492974951  0.3756682825834739  1.0000
  Mo  Mo13      1.0  0.7508015581271543  0.9996472979871909  0.5005835385341457  1.0000
  Ta  Ta13      1.0  0.8742074171958858  0.12433342421661518  0.6262939772445674  1.0000
  Nb  Nb74      1.0  0.7495964579326699  0.9971881820496318  0.7521635881983474  1.0000
  Ta  Ta14      1.0  0.8741249272263076  0.12708127710411438  0.8737146165596682  1.0000
  W   W3        1.0  0.7508871502889216  0.25030770595030066  0.0010650859691718275  1.0000
  Nb  Nb75      1.0  0.8714589652673739  0.37849078952618626  0.1296832008142609  1.0000
  Nb  Nb76      1.0  0.7520442138154927  0.2475357500403546  0.2490373215292757  1.0000
  Nb  Nb77      1.0  0.8723107533912473  0.3766174390515458  0.37354381669774367  1.0000
  Nb  Nb78      1.0  0.7508688744778675  0.24984824761087068  0.5001051416773216  1.0000
  Nb  Nb79      1.0  0.8732327689119419  0.37553190308459206  0.6266737398631743  1.0000
  Nb  Nb80      1.0  0.7468733049085273  0.2531559430391736  0.7486120165259474  1.0000
  Nb  Nb81      1.0  0.8749260968388152  0.3740399359593757  0.8740908246731329  1.0000
  Ta  Ta15      1.0  0.7520349162334589  0.5000654054134729  0.002482933189343464  1.0000
  Mo  Mo14      1.0  0.8731849993380429  0.6248908518544288  0.12687855045165292  1.0000
  Mo  Mo15      1.0  0.7378081328836488  0.5060416069603277  0.2596994538192696  1.0000
  Nb  Nb82      1.0  0.8728785213297513  0.6210966363135717  0.3733926565847103  1.0000
  Mo  Mo16      1.0  0.7554450616631446  0.49951368142951913  0.49977070171338067  1.0000
  Nb  Nb83      1.0  0.8720216034140906  0.6239932125568624  0.6242115701286067  1.0000
  Mo  Mo17      1.0  0.7497602179284747  0.4987177530526335  0.7503554360084868  1.0000
  Nb  Nb84      1.0  0.8746076877112184  0.6236545299947317  0.8738479049221457  1.0000
  Nb  Nb85      1.0  0.7518213761682108  0.7512296463180699  0.0004039572653011679  1.0000
  Nb  Nb86      1.0  0.871864674073735  0.8744855326198151  0.1294665653800908  1.0000
  Nb  Nb87      1.0  0.7438549713544641  0.741547913712157  0.2556038321719779  1.0000
  Nb  Nb88      1.0  0.8702369933265499  0.8768295125138115  0.37404616866694357  1.0000
  Nb  Nb89      1.0  0.7388313210399546  0.7389314107069894  0.49123115701553666  1.0000
  Nb  Nb90      1.0  0.871121454621816  0.8739909037027573  0.6218724079003759  1.0000
  Nb  Nb91      1.0  0.7509846782556846  0.7523962956332031  0.7529334370226677  1.0000
  Mo  Mo18      1.0  0.8756717776959719  0.8758612996446338  0.8763296472733473  1.0000
