data_image0
_chemical_formula_structural       MoTa2MoWMoW2Mo3TaMo2TaNbMoW2MoTaWTaWMoTaW3MoTa2MoTaMo3TaW2Mo6WMo2NbMoTaW2MoWMo2TaMoTaMoTa2W2TaMo4NbWMoTaW2MoWTaNbTaMoTaMo3Ta3MoTa3Mo2TaW2TaMo3TaWTaW2MoWMo4TaMoTa2MoWMo2TaMoTaMo2
_chemical_formula_sum              "Mo58 Ta36 W29 Nb4"
_cell_length_a       12.8
_cell_length_b       12.8
_cell_length_c       12.8
_cell_angle_alpha    90.0
_cell_angle_beta     90.0
_cell_angle_gamma    90.0

_space_group_name_H-M_alt    "P 1"
_space_group_IT_number       1

loop_
  _space_group_symop_operation_xyz
  'x, y, z'

loop_
  _atom_site_type_symbol
  _atom_site_label
  _atom_site_symmetry_multiplicity
  _atom_site_fract_x
  _atom_site_fract_y
  _atom_site_fract_z
  _atom_site_occupancy
  Mo  Mo1       1.0  0.9992485387732364  0.0008159290487871532  0.9984221197205482  1.0000
  Ta  Ta1       1.0  0.12682961318359892  0.12935874908347345  0.12267376029981014  1.0000
  Ta  Ta2       1.0  0.0004517721341078265  0.0003323835308067249  0.25365580881742056  1.0000
  Mo  Mo2       1.0  0.1254228257112298  0.12400198877780781  0.376594354102423  1.0000
  W   W1        1.0  0.00259692235008129  0.002368321170541475  0.5020910804444505  1.0000
  Mo  Mo3       1.0  0.1252675462150768  0.12571952206311449  0.6258521761346109  1.0000
  W   W2        1.0  0.00043295992297832383  0.002231534621237106  0.7488872710392626  1.0000
  W   W3        1.0  0.12705563633592207  0.1247265062507508  0.875327415749938  1.0000
  Mo  Mo4       1.0  0.00018825944939346466  0.2510525317389095  0.00027371681686364624  1.0000
  Mo  Mo5       1.0  0.12446282462933156  0.3764319851659954  0.12583026467898512  1.0000
  Mo  Mo6       1.0  0.9993370185436695  0.25179842086484083  0.24949450405871806  1.0000
  Ta  Ta3       1.0  0.12808841300764162  0.3688443985804601  0.37124286148638613  1.0000
  Mo  Mo7       1.0  0.9990417283415653  0.2486169756686974  0.49881479065701617  1.0000
  Mo  Mo8       1.0  0.12646029416816373  0.3737731001417915  0.625079557322636  1.0000
  Ta  Ta4       1.0  0.9983126717183004  0.24785070645485127  0.7474852868971806  1.0000
  Nb  Nb1       1.0  0.12844144094717405  0.37390137798999296  0.8794236068646993  1.0000
  Mo  Mo9       1.0  0.9996848588211891  0.5001122776849032  0.0008297516257793706  1.0000
  W   W4        1.0  0.12307547899083351  0.6226726650814017  0.12350077165213885  1.0000
  W   W5        1.0  0.0007316197393062709  0.5001970599261392  0.24759538601221112  1.0000
  Mo  Mo10      1.0  0.12498058810370631  0.6260316086129747  0.37430439500055446  1.0000
  Ta  Ta5       1.0  0.002968500883573835  0.4975900789176144  0.5002572020420775  1.0000
  W   W6        1.0  0.12626659701372656  0.6228993175103114  0.6258150770027662  1.0000
  Ta  Ta6       1.0  0.9998957111506622  0.49817153536637604  0.7519504161956887  1.0000
  W   W7        1.0  0.12644661004859561  0.6241700252502871  0.8791680370889055  1.0000
  Mo  Mo11      1.0  0.9985886841947289  0.7484386856625292  0.0010388689156072763  1.0000
  Ta  Ta7       1.0  0.12409187156889546  0.8748560479167554  0.12102355605696782  1.0000
  W   W8        1.0  0.0011590101331583013  0.747277216825011  0.24855711619664986  1.0000
  W   W9        1.0  0.12388361007155381  0.8771891888531365  0.37580016928783155  1.0000
  W   W10       1.0  0.003566782211145863  0.7505955858752072  0.49911512641032774  1.0000
  Mo  Mo12      1.0  0.12386260493742564  0.8758608205610435  0.6242111927337284  1.0000
  Ta  Ta8       1.0  0.9999416027239848  0.7499405952591377  0.7530573266739116  1.0000
  Ta  Ta9       1.0  0.12337845597602966  0.8781736190989904  0.8797125944037786  1.0000
  Mo  Mo13      1.0  0.25103152191854183  0.0008019445271017829  0.9987159902976294  1.0000
  Ta  Ta10      1.0  0.3704220057906054  0.12561758134467566  0.12231892664838144  1.0000
  Mo  Mo14      1.0  0.24911440907152194  0.0005289985568999987  0.25102430285382454  1.0000
  Mo  Mo15      1.0  0.37350255055650794  0.12672436541377735  0.3762782606392842  1.0000
  Mo  Mo16      1.0  0.2487673734531718  0.000855927836029055  0.5000901081930443  1.0000
  Ta  Ta11      1.0  0.3743133479926733  0.12454513965823692  0.6233896058956337  1.0000
  W   W11       1.0  0.24646952874803338  0.002369814455442876  0.7477164567423017  1.0000
  W   W12       1.0  0.37314052940734377  0.1271754780819207  0.8736988984552424  1.0000
  Mo  Mo17      1.0  0.25103955283705814  0.25137732592829615  0.9979862246640577  1.0000
  Mo  Mo18      1.0  0.3734223697060674  0.37389031004632284  0.12620983442322187  1.0000
  Mo  Mo19      1.0  0.25085048904183166  0.25065702973227233  0.25120527630567663  1.0000
  Mo  Mo20      1.0  0.379029737715349  0.37698511251744055  0.3791979825891703  1.0000
  Mo  Mo21      1.0  0.2529771849033772  0.25244274296035896  0.5010630242574649  1.0000
  Mo  Mo22      1.0  0.3777622308648099  0.3773705156545154  0.6219077528291546  1.0000
  W   W13       1.0  0.2513349506210417  0.25189085525310584  0.7484919100510056  1.0000
  Mo  Mo23      1.0  0.37581212550630416  0.37329304286608933  0.8729310383985568  1.0000
  Mo  Mo24      1.0  0.24877458125183327  0.4996465221229296  0.9995567840972239  1.0000
  Nb  Nb2       1.0  0.3710395750425927  0.6212559196205459  0.1236202758332927  1.0000
  Mo  Mo25      1.0  0.248600339969081  0.4988013036354932  0.25194829758730747  1.0000
  Ta  Ta12      1.0  0.3790465510806435  0.6113140873991871  0.38051138132337636  1.0000
  W   W14       1.0  0.24892742629568448  0.49771638945411756  0.5026119127736852  1.0000
  W   W15       1.0  0.37735380075567015  0.6166911067152949  0.6232639670883139  1.0000
  Mo  Mo26      1.0  0.2509674255368266  0.4989220454120414  0.7482397995229023  1.0000
  W   W16       1.0  0.3721816357726731  0.6210919884201321  0.8733295522549472  1.0000
  Mo  Mo27      1.0  0.2499579348139153  0.7488025165281291  0.999010047966325  1.0000
  Mo  Mo28      1.0  0.3758882211387659  0.8749409937555469  0.12589738857668073  1.0000
  Ta  Ta13      1.0  0.24889904828273215  0.7500097375016113  0.25272412475989703  1.0000
  Mo  Mo29      1.0  0.37343253672218135  0.8755309562135194  0.37589760345837275  1.0000
  Ta  Ta14      1.0  0.24972187049746988  0.7502829669464306  0.5011492454902138  1.0000
  Mo  Mo30      1.0  0.37473088452934317  0.8745935864458034  0.6249997424520214  1.0000
  Ta  Ta15      1.0  0.2504043831079974  0.7487388074197379  0.7465088885014716  1.0000
  Ta  Ta16      1.0  0.373653201910995  0.8809288772801925  0.8752949230600532  1.0000
  W   W17       1.0  0.5006342412251565  0.0013388106678044029  0.0004951369691686767  1.0000
  W   W18       1.0  0.6244327624685071  0.12448883434003168  0.12354953243724329  1.0000
  Ta  Ta17      1.0  0.499344719939825  0.001487754033731001  0.25528343207549975  1.0000
  Mo  Mo31      1.0  0.6251464390500928  0.12733008445759805  0.37509708667992964  1.0000
  Mo  Mo32      1.0  0.49952101313239194  0.0017626638076449308  0.49998858439790583  1.0000
  Mo  Mo33      1.0  0.6244526270729459  0.1272905715356865  0.6252501880738588  1.0000
  Mo  Mo34      1.0  0.4981459188610565  0.0011817213655691088  0.7506281414668349  1.0000
  Nb  Nb3       1.0  0.6230212980828052  0.12173895531651392  0.8724197858546585  1.0000
  W   W19       1.0  0.49865573000567764  0.25034492683045784  0.00011459469758244662  1.0000
  Mo  Mo35      1.0  0.6261563304686778  0.3733791124421163  0.1264107551330863  1.0000
  Ta  Ta18      1.0  0.4983489823963101  0.2532765946436944  0.2533678515643959  1.0000
  W   W20       1.0  0.6227198781662617  0.38044888318104764  0.38048601837866375  1.0000
  W   W21       1.0  0.501790433961361  0.25081109962095  0.4990387108575742  1.0000
  Mo  Mo36      1.0  0.621398833987125  0.37645874201217266  0.6214245572169528  1.0000
  W   W22       1.0  0.4992704599858894  0.2533046683279511  0.7463995802506467  1.0000
  Ta  Ta19      1.0  0.6221825599361791  0.3751901886715692  0.8720450420451109  1.0000
  Nb  Nb4       1.0  0.4982141035671861  0.4965789358832818  0.9995418472529607  1.0000
  Ta  Ta20      1.0  0.6316425529691322  0.6216938291690755  0.12749661815718544  1.0000
  Mo  Mo37      1.0  0.499998625965854  0.49863041492951815  0.2500772069095588  1.0000
  Ta  Ta21      1.0  0.6249385130885949  0.6154549677533138  0.3797310737567558  1.0000
  Mo  Mo38      1.0  0.6209193724511388  0.6211507157149248  0.622201004173381  1.0000
  Mo  Mo39      1.0  0.4987360448261857  0.4995254191130957  0.7479812453950351  1.0000
  Mo  Mo40      1.0  0.6249137085466461  0.6248619702804219  0.8750726269911703  1.0000
  Ta  Ta22      1.0  0.5024254632918634  0.7495080060113545  0.9977473763889578  1.0000
  Ta  Ta23      1.0  0.631953752480902  0.8776394931543176  0.12338735649007365  1.0000
  Ta  Ta24      1.0  0.49819534798636  0.752392847070123  0.2520877066488554  1.0000
  Mo  Mo41      1.0  0.6252422680785823  0.8750470958918471  0.375133991500763  1.0000
  Ta  Ta25      1.0  0.49795406016724497  0.7532444132836353  0.5020505557582504  1.0000
  Ta  Ta26      1.0  0.6278482086529303  0.8793534367308065  0.629045817754086  1.0000
  Ta  Ta27      1.0  0.5014527432655217  0.7450185417023846  0.7498095391373607  1.0000
  Mo  Mo42      1.0  0.6264980624512845  0.8744124224606397  0.8752154910543763  1.0000
  Mo  Mo43      1.0  0.750124296824243  0.998754583689061  0.0007871512430953795  1.0000
  Ta  Ta28      1.0  0.8768804291235099  0.12436025481525712  0.12260998731834812  1.0000
  W   W23       1.0  0.7498170012675597  0.0018849446878033236  0.250490297686134  1.0000
  W   W24       1.0  0.877687428061843  0.12821741030355266  0.37639267083759115  1.0000
  Ta  Ta29      1.0  0.7482103188666918  0.009560348714712973  0.49736853271382864  1.0000
  Mo  Mo44      1.0  0.874788697729041  0.12499560167406651  0.6239264884748545  1.0000
  Mo  Mo45      1.0  0.7524573077972654  0.0018832779006178635  0.7509986613878978  1.0000
  Mo  Mo46      1.0  0.8767959007548205  0.12483533945830223  0.8736437806095899  1.0000
  Ta  Ta30      1.0  0.7508215781371573  0.2520438438222081  0.9976474729602004  1.0000
  W   W25       1.0  0.8778584922902545  0.37776828702343945  0.1256920261789179  1.0000
  Ta  Ta31      1.0  0.7472803188415815  0.25096027813636923  0.2536540229854999  1.0000
  W   W26       1.0  0.8739949063981269  0.37392518548718345  0.37481826940370355  1.0000
  W   W27       1.0  0.7477033453337891  0.25280087057861717  0.5027374348582208  1.0000
  Mo  Mo47      1.0  0.8741045854134294  0.37418661939857484  0.6235268405736504  1.0000
  W   W28       1.0  0.7497647917040894  0.2502341473938817  0.7453071207346524  1.0000
  Mo  Mo48      1.0  0.873800068092374  0.37450490298777644  0.875879216623644  1.0000
  Mo  Mo49      1.0  0.7519720175687186  0.5012430229274479  0.0004140450116171132  1.0000
  Mo  Mo50      1.0  0.8765634078513073  0.6249322548227008  0.12460800714904886  1.0000
  Mo  Mo51      1.0  0.7515548356371904  0.4975817711922703  0.2502997210124107  1.0000
  Ta  Ta32      1.0  0.8716969941783625  0.6235364939987795  0.3717728544747278  1.0000
  Mo  Mo52      1.0  0.7499831288670112  0.4970457840323733  0.500828976454673  1.0000
  Ta  Ta33      1.0  0.8704108749481848  0.6284031421106047  0.621577762522951  1.0000
  Ta  Ta34      1.0  0.7482645406577927  0.4987199248841928  0.7486955991479626  1.0000
  Mo  Mo53      1.0  0.8758172295033453  0.6251278186776849  0.8754930204271006  1.0000
  W   W29       1.0  0.7535955040999389  0.7488759689851053  0.9960262784949815  1.0000
  Mo  Mo54      1.0  0.8755955455383685  0.8736219881909792  0.12461670987723784  1.0000
  Mo  Mo55      1.0  0.7508878566132018  0.750524714377907  0.24804735069014094  1.0000
  Ta  Ta35      1.0  0.87387238032984  0.8722092763660005  0.3758555899008723  1.0000
  Mo  Mo56      1.0  0.7484737810221133  0.7490757928590831  0.5009216227718287  1.0000
  Ta  Ta36      1.0  0.8728998702656253  0.8769381766867548  0.6258528891164151  1.0000
  Mo  Mo57      1.0  0.7490860489743427  0.7495128654179907  0.7517407164222556  1.0000
  Mo  Mo58      1.0  0.8743510830370872  0.8755942341327274  0.8753153394091651  1.0000
