data_image0
_chemical_formula_structural       Ta2MoWTa5W2Ta4MoTaNbWTaNbTa3MoTa6WTaMo3Ta2Mo2TaMo2Ta2NbTa3WTa4WNbMoTa2W2MoTa3WMoTa7WTa2WTa2NbMo4Ta2Mo2WTaMoTa3Mo2Ta2WMoWTaMoWTa2MoTa8MoNbMoWTaMoNbTaMoTa2
_chemical_formula_sum              "Ta74 Mo29 W17 Nb7"
_cell_length_a       12.8
_cell_length_b       12.8
_cell_length_c       12.8
_cell_angle_alpha    90.0
_cell_angle_beta     90.0
_cell_angle_gamma    90.0

_space_group_name_H-M_alt    "P 1"
_space_group_IT_number       1

loop_
  _space_group_symop_operation_xyz
  'x, y, z'

loop_
  _atom_site_type_symbol
  _atom_site_label
  _atom_site_symmetry_multiplicity
  _atom_site_fract_x
  _atom_site_fract_y
  _atom_site_fract_z
  _atom_site_occupancy
  Ta  Ta1       1.0  0.00010555560420571367  0.002572634930916523  0.001898258463497283  1.0000
  Ta  Ta2       1.0  0.12680415376986967  0.12460384495190303  0.13467037045086544  1.0000
  Mo  Mo1       1.0  0.998821637677323  0.0007834722253259851  0.25004882957038504  1.0000
  W   W1        1.0  0.12497995457665681  0.12384132614485768  0.37276735878157713  1.0000
  Ta  Ta3       1.0  0.9971222670687636  0.00029877851837967407  0.5014608795128752  1.0000
  Ta  Ta4       1.0  0.12766641856750818  0.12296110908128219  0.6260749671268144  1.0000
  Ta  Ta5       1.0  0.9951282775601774  0.9983677209614475  0.7490298157437016  1.0000
  Ta  Ta6       1.0  0.12575787909312303  0.12150807990617492  0.8752369661580434  1.0000
  Ta  Ta7       1.0  0.0008451394840707201  0.2503567756632845  0.0036810676394064706  1.0000
  W   W2        1.0  0.12377836017241711  0.3737449680080917  0.1278705971789763  1.0000
  W   W3        1.0  0.9983739166051975  0.2499813777468024  0.24890122416025964  1.0000
  Ta  Ta8       1.0  0.12441323979130561  0.3721050729317735  0.3696501663518145  1.0000
  Ta  Ta9       1.0  5.683028069197767e-05  0.2455741002383946  0.4988672830718838  1.0000
  Ta  Ta10      1.0  0.12552440239477614  0.3759573709435515  0.6247840142067289  1.0000
  Ta  Ta11      1.0  0.998961214113756  0.2489836965341473  0.751499321115756  1.0000
  Mo  Mo2       1.0  0.12410742481068715  0.3745333223999676  0.8762017372565173  1.0000
  Ta  Ta12      1.0  0.00040639547559012944  0.49806711455556457  0.0002739952622215976  1.0000
  Nb  Nb1       1.0  0.12566175287401485  0.6265221447725132  0.12398490797722395  1.0000
  W   W4        1.0  0.9990104035458182  0.49849751674783144  0.24789699461362258  1.0000
  Ta  Ta13      1.0  0.1258172732079159  0.6250306331199641  0.3755465193046188  1.0000
  Nb  Nb2       1.0  0.9975657687625437  0.501137281396327  0.4993816596089273  1.0000
  Ta  Ta14      1.0  0.1279397831291754  0.6254130588737983  0.6254250906503144  1.0000
  Ta  Ta15      1.0  0.9979217354490515  0.5017459646698554  0.7539938213423903  1.0000
  Ta  Ta16      1.0  0.12628112228132005  0.6300003013494666  0.8773568025694944  1.0000
  Mo  Mo3       1.0  0.9992821388543647  0.7512574893964551  0.9996861326836048  1.0000
  Ta  Ta17      1.0  0.1261085562980467  0.8760058496290525  0.12345052506136214  1.0000
  Ta  Ta18      1.0  0.0004536878740185046  0.7504639453162208  0.25062599776797756  1.0000
  Ta  Ta19      1.0  0.12703849158341624  0.879121584379493  0.37196850414732413  1.0000
  Ta  Ta20      1.0  0.9970005516309653  0.7527237606650206  0.5022876323189593  1.0000
  Ta  Ta21      1.0  0.12871436588827836  0.8761121106661439  0.6261151856891705  1.0000
  Ta  Ta22      1.0  0.9962037304773076  0.7499213970267256  0.7498273629907732  1.0000
  W   W5        1.0  0.12468537409714098  0.8755118094551846  0.8761994968819267  1.0000
  Ta  Ta23      1.0  0.25383729848353515  0.0038335483539806738  0.0009538097912576629  1.0000
  Mo  Mo4       1.0  0.3754764280660472  0.12410681045782593  0.12755005991771334  1.0000
  Mo  Mo5       1.0  0.25164884718568514  0.9992695450837815  0.24939637399562564  1.0000
  Mo  Mo6       1.0  0.3755588807988536  0.12438450755469663  0.37433385083529125  1.0000
  Ta  Ta24      1.0  0.25392765805584294  0.9996479909623129  0.49617542187129765  1.0000
  Ta  Ta25      1.0  0.37518327237739235  0.1242266700452657  0.6267159157210225  1.0000
  Mo  Mo7       1.0  0.24935726431170732  0.9994187347812077  0.7507347185206231  1.0000
  Mo  Mo8       1.0  0.3769639593916427  0.1257748774959755  0.8747491237304941  1.0000
  Ta  Ta26      1.0  0.25160509238013934  0.25059743071245877  0.003984895846729734  1.0000
  Mo  Mo9       1.0  0.37413985800128624  0.3756632675390059  0.12526262169569177  1.0000
  Mo  Mo10      1.0  0.2508116569384939  0.24905264533468321  0.2504101771365442  1.0000
  Ta  Ta27      1.0  0.3798452482562177  0.37505071292747266  0.37004513171773756  1.0000
  Ta  Ta28      1.0  0.25240078235263136  0.24674962406871445  0.49566989433539105  1.0000
  Nb  Nb3       1.0  0.37339125357606284  0.376764403602839  0.6237287747802592  1.0000
  Ta  Ta29      1.0  0.25110978140166856  0.25124573718899196  0.754574159699329  1.0000
  Ta  Ta30      1.0  0.37761461957811193  0.37811163111099955  0.8737142386418686  1.0000
  Ta  Ta31      1.0  0.2491462779914683  0.4969477823537299  0.0011504974653602502  1.0000
  W   W6        1.0  0.377540381976412  0.626669490148941  0.12456469225646903  1.0000
  Ta  Ta32      1.0  0.2531341426575261  0.49941876811553765  0.24526571554969734  1.0000
  Ta  Ta33      1.0  0.38344803260780325  0.6256103470734892  0.37474687385810257  1.0000
  Ta  Ta34      1.0  0.2529288057132636  0.4998394687261265  0.4973491651859213  1.0000
  Ta  Ta35      1.0  0.3764631016851649  0.6262015111102721  0.6209829113154479  1.0000
  W   W7        1.0  0.2508404513981793  0.5016493306854111  0.7517535046157998  1.0000
  Nb  Nb4       1.0  0.37616642789682  0.6256821001057735  0.8767682488224893  1.0000
  Mo  Mo11      1.0  0.2506241500818783  0.7515852769353432  0.0009228841713042293  1.0000
  Ta  Ta36      1.0  0.37816025285872745  0.8735738818080362  0.12866082336409645  1.0000
  Ta  Ta37      1.0  0.25392065274284087  0.7493478000662018  0.2505169700940383  1.0000
  W   W8        1.0  0.376771490146674  0.8735848155838516  0.3732612944144984  1.0000
  W   W9        1.0  0.2512424102516802  0.7519339512860429  0.4983398567124023  1.0000
  Mo  Mo12      1.0  0.3763385309175022  0.8748402214341435  0.6238664176847185  1.0000
  Ta  Ta38      1.0  0.25183849879546394  0.7524059879153111  0.749399001432861  1.0000
  Ta  Ta39      1.0  0.37366076003988835  0.8732764522519297  0.8789494110765933  1.0000
  Ta  Ta40      1.0  0.4998407508848452  0.0022950620300312943  0.0048938658105680925  1.0000
  W   W10       1.0  0.6248727818839219  0.12370925263053473  0.125618113135155  1.0000
  Mo  Mo13      1.0  0.4996807055186051  0.9995241399197329  0.25037996227759507  1.0000
  Ta  Ta41      1.0  0.6243955768876968  0.12535957288406918  0.3740842329077019  1.0000
  Ta  Ta42      1.0  0.4960944563402476  0.9994329382132957  0.4969630056161109  1.0000
  Ta  Ta43      1.0  0.6284982062591356  0.12047154921903462  0.6217334495406621  1.0000
  Ta  Ta44      1.0  0.4980217363806094  3.0627924612492774e-05  0.7518179471875354  1.0000
  Ta  Ta45      1.0  0.6292299641270778  0.12435952178342709  0.8771375446225929  1.0000
  Ta  Ta46      1.0  0.4947354492033946  0.2456732116782019  0.0035625807268633565  1.0000
  Ta  Ta47      1.0  0.6226979216580022  0.3728618765585637  0.12689267873049706  1.0000
  W   W11       1.0  0.497781864240519  0.24595716056352512  0.2488481365725359  1.0000
  Ta  Ta48      1.0  0.6232327639966168  0.3739250748983058  0.371532871760455  1.0000
  Ta  Ta49      1.0  0.5038087055337179  0.2544612942827832  0.5036870369339512  1.0000
  W   W12       1.0  0.5058038168409716  0.49723559871468753  0.5032553188789958  1.0000
  Ta  Ta50      1.0  0.5051210518398696  0.2530510242320595  0.7464867356586712  1.0000
  Ta  Ta51      1.0  0.6258284064022561  0.37416948869777555  0.8810270396104831  1.0000
  Nb  Nb5       1.0  0.4992093375187207  0.5014693085248844  0.004983568968680848  1.0000
  Mo  Mo14      1.0  0.6239332001346375  0.6261401675540329  0.12629976398862047  1.0000
  Mo  Mo15      1.0  0.500841902930226  0.5004950184047401  0.25109737368069884  1.0000
  Mo  Mo16      1.0  0.6250905804112241  0.6234693076823352  0.3760301881610845  1.0000
  Mo  Mo17      1.0  0.6234009504575176  0.6292322101469471  0.6253335933663247  1.0000
  Ta  Ta52      1.0  0.5083572916159014  0.49641583664657823  0.7401878786970228  1.0000
  Ta  Ta53      1.0  0.6241746137201645  0.6266636518647005  0.8777096208383482  1.0000
  Mo  Mo18      1.0  0.501271696565365  0.7514974917579792  0.0012085491056114718  1.0000
  Mo  Mo19      1.0  0.6251774829034442  0.8758894578274634  0.1246543800355398  1.0000
  W   W13       1.0  0.5033690025732155  0.7487558345358413  0.24769975268937758  1.0000
  Ta  Ta54      1.0  0.6216120967790799  0.8723363934930172  0.37187193144194886  1.0000
  Mo  Mo20      1.0  0.4994488610580336  0.7495678395781387  0.49767839032310585  1.0000
  Ta  Ta55      1.0  0.625150095228191  0.8760953436850681  0.6225510591988571  1.0000
  Ta  Ta56      1.0  0.5004997617049033  0.7505440776311301  0.747703439751971  1.0000
  Ta  Ta57      1.0  0.6269693954244375  0.8752795785817238  0.8785611183488012  1.0000
  Mo  Mo21      1.0  0.7497695089353045  0.9991697595929466  0.9994239366994838  1.0000
  Mo  Mo22      1.0  0.8740786015385196  0.12570525928370246  0.12485020641986498  1.0000
  Ta  Ta58      1.0  0.7470773563488986  0.00023164122231182516  0.24500734925082704  1.0000
  Ta  Ta59      1.0  0.8732952701624153  0.1253805455259948  0.37396907458950474  1.0000
  W   W14       1.0  0.7506854471296365  0.9988311539757988  0.49867974794174963  1.0000
  Mo  Mo23      1.0  0.8740019575576475  0.12589226612844182  0.6251052027315718  1.0000
  W   W15       1.0  0.7506713715709755  0.9988310006113423  0.7477581007197652  1.0000
  Ta  Ta60      1.0  0.8687821752340619  0.12451942049767177  0.8771215355954005  1.0000
  Mo  Mo24      1.0  0.7493513849627911  0.2504753553948181  0.9999758945637928  1.0000
  W   W16       1.0  0.8755802114040429  0.37558326393767544  0.12658988876400115  1.0000
  Ta  Ta61      1.0  0.7514103382710763  0.24806435288285242  0.24502242919134606  1.0000
  Ta  Ta62      1.0  0.8715434614712088  0.3745402056722339  0.3751711190259963  1.0000
  Mo  Mo25      1.0  0.7461587877476289  0.25259859395667156  0.5003305544828008  1.0000
  Ta  Ta63      1.0  0.8747765978023415  0.37347773073151547  0.6224095944848786  1.0000
  Ta  Ta64      1.0  0.7452601672473823  0.25297985606191153  0.7422132346020907  1.0000
  Ta  Ta65      1.0  0.8702129415113875  0.37285821935419744  0.8763086346078862  1.0000
  Ta  Ta66      1.0  0.7513494735670824  0.5036914064036067  0.0029849949083315223  1.0000
  Ta  Ta67      1.0  0.8751165985164266  0.6292669160525483  0.12451355670900145  1.0000
  Ta  Ta68      1.0  0.7466665950467922  0.5038773719943928  0.24868156967604166  1.0000
  Ta  Ta69      1.0  0.8722237726841697  0.6241891609603842  0.3728306890204803  1.0000
  Ta  Ta70      1.0  0.7381040017184126  0.49904836030956495  0.5069407733208129  1.0000
  Mo  Mo26      1.0  0.8746866269390242  0.6228682903475766  0.6242597913477966  1.0000
  Nb  Nb6       1.0  0.7455287474942431  0.49877791901706714  0.7447026625941934  1.0000
  Mo  Mo27      1.0  0.8738194935230769  0.6244117616584709  0.8753950169053688  1.0000
  W   W17       1.0  0.7476836811758172  0.7489902964981598  0.0018453736622267452  1.0000
  Ta  Ta71      1.0  0.8727282065344627  0.8744056911388826  0.12356876270734862  1.0000
  Mo  Mo28      1.0  0.74854889535799  0.7504096643671971  0.24912695539118962  1.0000
  Nb  Nb7       1.0  0.8719137311061098  0.8755805244299286  0.3725704045192623  1.0000
  Ta  Ta72      1.0  0.7485416835832831  0.7467001961643766  0.5015563250291846  1.0000
  Mo  Mo29      1.0  0.8742547337440298  0.8752279640034377  0.6251738542933737  1.0000
  Ta  Ta73      1.0  0.752817870376017  0.7475989298980846  0.7480674454618723  1.0000
  Ta  Ta74      1.0  0.8725758254359756  0.8742770718959549  0.8801932698790185  1.0000
