data_image0
_chemical_formula_structural       Mo3Nb2MoTa2MoNbMo7WMoNb2WTa2NbMoTaMoNbMoTaMo2NbMoNbMoTaNb2MoNbTa2MoNb2Ta2NbMoNb2Mo2TaMoTaMoTaMoTaMoWTaMo2TaMo2NbTa4Nb3MoWTa2WTaMoTaMo4Nb3Ta3MoNb3MoTaMo2NbMo2Ta2MoTa2MoWTaNb2Mo5Nb2TaMo2
_chemical_formula_sum              "Mo54 Nb32 Ta35 W6"
_cell_length_a       12.8
_cell_length_b       12.8
_cell_length_c       12.8
_cell_angle_alpha    90.0
_cell_angle_beta     90.0
_cell_angle_gamma    90.0

_space_group_name_H-M_alt    "P 1"
_space_group_IT_number       1

loop_
  _space_group_symop_operation_xyz
  'x, y, z'

loop_
  _atom_site_type_symbol
  _atom_site_label
  _atom_site_symmetry_multiplicity
  _atom_site_fract_x
  _atom_site_fract_y
  _atom_site_fract_z
  _atom_site_occupancy
  Mo  Mo1       1.0  0.0  0.0  0.0  1.0000
  Mo  Mo2       1.0  0.125  0.125  0.125  1.0000
  Mo  Mo3       1.0  0.0  0.0  0.25  1.0000
  Nb  Nb1       1.0  0.125  0.125  0.37500000000000006  1.0000
  Nb  Nb2       1.0  0.0  0.0  0.5  1.0000
  Mo  Mo4       1.0  0.125  0.125  0.625  1.0000
  Ta  Ta1       1.0  0.0  0.0  0.7500000000000001  1.0000
  Ta  Ta2       1.0  0.125  0.125  0.8750000000000001  1.0000
  Mo  Mo5       1.0  0.0  0.25  0.0  1.0000
  Nb  Nb3       1.0  0.125  0.37500000000000006  0.125  1.0000
  Mo  Mo6       1.0  0.0  0.25  0.25  1.0000
  Mo  Mo7       1.0  0.125  0.37500000000000006  0.37500000000000006  1.0000
  Mo  Mo8       1.0  0.0  0.25  0.5  1.0000
  Mo  Mo9       1.0  0.125  0.37500000000000006  0.625  1.0000
  Mo  Mo10      1.0  0.0  0.25  0.7500000000000001  1.0000
  Mo  Mo11      1.0  0.125  0.37500000000000006  0.8750000000000001  1.0000
  Mo  Mo12      1.0  0.0  0.5  0.0  1.0000
  W   W1        1.0  0.125  0.625  0.125  1.0000
  Mo  Mo13      1.0  0.0  0.5  0.25  1.0000
  Nb  Nb4       1.0  0.125  0.625  0.37500000000000006  1.0000
  Nb  Nb5       1.0  0.0  0.5  0.5  1.0000
  W   W2        1.0  0.125  0.625  0.625  1.0000
  Ta  Ta3       1.0  0.0  0.5  0.7500000000000001  1.0000
  Ta  Ta4       1.0  0.125  0.625  0.8750000000000001  1.0000
  Nb  Nb6       1.0  0.0  0.7500000000000001  0.0  1.0000
  Mo  Mo14      1.0  0.125  0.8750000000000001  0.125  1.0000
  Ta  Ta5       1.0  0.0  0.7500000000000001  0.25  1.0000
  Mo  Mo15      1.0  0.125  0.8750000000000001  0.37500000000000006  1.0000
  Nb  Nb7       1.0  0.0  0.7500000000000001  0.5  1.0000
  Mo  Mo16      1.0  0.125  0.8750000000000001  0.625  1.0000
  Ta  Ta6       1.0  0.0  0.7500000000000001  0.7500000000000001  1.0000
  Mo  Mo17      1.0  0.125  0.8750000000000001  0.8750000000000001  1.0000
  Mo  Mo18      1.0  0.25  0.0  0.0  1.0000
  Nb  Nb8       1.0  0.37500000000000006  0.125  0.125  1.0000
  Mo  Mo19      1.0  0.25  0.0  0.25  1.0000
  Nb  Nb9       1.0  0.37500000000000006  0.125  0.37500000000000006  1.0000
  Mo  Mo20      1.0  0.25  0.0  0.5  1.0000
  Ta  Ta7       1.0  0.37500000000000006  0.125  0.625  1.0000
  Nb  Nb10      1.0  0.25  0.0  0.7500000000000001  1.0000
  Nb  Nb11      1.0  0.37500000000000006  0.125  0.8750000000000001  1.0000
  Mo  Mo21      1.0  0.25  0.25  0.0  1.0000
  Nb  Nb12      1.0  0.37500000000000006  0.37500000000000006  0.125  1.0000
  Ta  Ta8       1.0  0.25  0.25  0.25  1.0000
  Ta  Ta9       1.0  0.37500000000000006  0.37500000000000006  0.37500000000000006  1.0000
  Mo  Mo22      1.0  0.25  0.25  0.5  1.0000
  Nb  Nb13      1.0  0.37500000000000006  0.37500000000000006  0.625  1.0000
  Nb  Nb14      1.0  0.25  0.25  0.7500000000000001  1.0000
  Ta  Ta10      1.0  0.37500000000000006  0.37500000000000006  0.8750000000000001  1.0000
  Ta  Ta11      1.0  0.25  0.5  0.0  1.0000
  Nb  Nb15      1.0  0.37500000000000006  0.625  0.125  1.0000
  Mo  Mo23      1.0  0.25  0.5  0.25  1.0000
  Nb  Nb16      1.0  0.37500000000000006  0.625  0.37500000000000006  1.0000
  Nb  Nb17      1.0  0.25  0.5  0.5  1.0000
  Mo  Mo24      1.0  0.37500000000000006  0.625  0.625  1.0000
  Mo  Mo25      1.0  0.25  0.5  0.7500000000000001  1.0000
  Ta  Ta12      1.0  0.37500000000000006  0.625  0.8750000000000001  1.0000
  Mo  Mo26      1.0  0.25  0.7500000000000001  0.0  1.0000
  Ta  Ta13      1.0  0.37500000000000006  0.8750000000000001  0.125  1.0000
  Mo  Mo27      1.0  0.25  0.7500000000000001  0.25  1.0000
  Ta  Ta14      1.0  0.37500000000000006  0.8750000000000001  0.37500000000000006  1.0000
  Mo  Mo28      1.0  0.25  0.7500000000000001  0.5  1.0000
  Ta  Ta15      1.0  0.37500000000000006  0.8750000000000001  0.625  1.0000
  Mo  Mo29      1.0  0.25  0.7500000000000001  0.7500000000000001  1.0000
  W   W3        1.0  0.37500000000000006  0.8750000000000001  0.8750000000000001  1.0000
  Ta  Ta16      1.0  0.5  0.0  0.0  1.0000
  Mo  Mo30      1.0  0.625  0.125  0.125  1.0000
  Mo  Mo31      1.0  0.5  0.0  0.25  1.0000
  Ta  Ta17      1.0  0.625  0.125  0.37500000000000006  1.0000
  Mo  Mo32      1.0  0.5  0.0  0.5  1.0000
  Mo  Mo33      1.0  0.625  0.125  0.625  1.0000
  Nb  Nb18      1.0  0.5  0.0  0.7500000000000001  1.0000
  Ta  Ta18      1.0  0.625  0.125  0.8750000000000001  1.0000
  Ta  Ta19      1.0  0.5  0.25  0.0  1.0000
  Ta  Ta20      1.0  0.625  0.37500000000000006  0.125  1.0000
  Ta  Ta21      1.0  0.5  0.25  0.25  1.0000
  Nb  Nb19      1.0  0.625  0.37500000000000006  0.37500000000000006  1.0000
  Nb  Nb20      1.0  0.5  0.25  0.5  1.0000
  Nb  Nb21      1.0  0.625  0.37500000000000006  0.625  1.0000
  Mo  Mo34      1.0  0.5  0.25  0.7500000000000001  1.0000
  W   W4        1.0  0.625  0.37500000000000006  0.8750000000000001  1.0000
  Ta  Ta22      1.0  0.5  0.5  0.0  1.0000
  Ta  Ta23      1.0  0.625  0.625  0.125  1.0000
  W   W5        1.0  0.5  0.5  0.25  1.0000
  Ta  Ta24      1.0  0.625  0.625  0.37500000000000006  1.0000
  Mo  Mo35      1.0  0.625  0.625  0.625  1.0000
  Ta  Ta25      1.0  0.5  0.5  0.7500000000000001  1.0000
  Mo  Mo36      1.0  0.625  0.625  0.8750000000000001  1.0000
  Mo  Mo37      1.0  0.5  0.7500000000000001  0.0  1.0000
  Mo  Mo38      1.0  0.625  0.8750000000000001  0.125  1.0000
  Mo  Mo39      1.0  0.5  0.7500000000000001  0.25  1.0000
  Nb  Nb22      1.0  0.625  0.8750000000000001  0.37500000000000006  1.0000
  Nb  Nb23      1.0  0.5  0.7500000000000001  0.5  1.0000
  Nb  Nb24      1.0  0.625  0.8750000000000001  0.625  1.0000
  Ta  Ta26      1.0  0.5  0.7500000000000001  0.7500000000000001  1.0000
  Ta  Ta27      1.0  0.625  0.8750000000000001  0.8750000000000001  1.0000
  Ta  Ta28      1.0  0.7500000000000001  0.0  0.0  1.0000
  Mo  Mo40      1.0  0.8750000000000001  0.125  0.125  1.0000
  Nb  Nb25      1.0  0.7500000000000001  0.0  0.25  1.0000
  Nb  Nb26      1.0  0.8750000000000001  0.125  0.37500000000000006  1.0000
  Nb  Nb27      1.0  0.7500000000000001  0.0  0.5  1.0000
  Mo  Mo41      1.0  0.8750000000000001  0.125  0.625  1.0000
  Ta  Ta29      1.0  0.7500000000000001  0.0  0.7500000000000001  1.0000
  Mo  Mo42      1.0  0.8750000000000001  0.125  0.8750000000000001  1.0000
  Mo  Mo43      1.0  0.7500000000000001  0.25  0.0  1.0000
  Nb  Nb28      1.0  0.8750000000000001  0.37500000000000006  0.125  1.0000
  Mo  Mo44      1.0  0.7500000000000001  0.25  0.25  1.0000
  Mo  Mo45      1.0  0.8750000000000001  0.37500000000000006  0.37500000000000006  1.0000
  Ta  Ta30      1.0  0.7500000000000001  0.25  0.5  1.0000
  Ta  Ta31      1.0  0.8750000000000001  0.37500000000000006  0.625  1.0000
  Mo  Mo46      1.0  0.7500000000000001  0.25  0.7500000000000001  1.0000
  Ta  Ta32      1.0  0.8750000000000001  0.37500000000000006  0.8750000000000001  1.0000
  Ta  Ta33      1.0  0.7500000000000001  0.5  0.0  1.0000
  Mo  Mo47      1.0  0.8750000000000001  0.625  0.125  1.0000
  W   W6        1.0  0.7500000000000001  0.5  0.25  1.0000
  Ta  Ta34      1.0  0.8750000000000001  0.625  0.37500000000000006  1.0000
  Nb  Nb29      1.0  0.7500000000000001  0.5  0.5  1.0000
  Nb  Nb30      1.0  0.8750000000000001  0.625  0.625  1.0000
  Mo  Mo48      1.0  0.7500000000000001  0.5  0.7500000000000001  1.0000
  Mo  Mo49      1.0  0.8750000000000001  0.625  0.8750000000000001  1.0000
  Mo  Mo50      1.0  0.7500000000000001  0.7500000000000001  0.0  1.0000
  Mo  Mo51      1.0  0.8750000000000001  0.8750000000000001  0.125  1.0000
  Mo  Mo52      1.0  0.7500000000000001  0.7500000000000001  0.25  1.0000
  Nb  Nb31      1.0  0.8750000000000001  0.8750000000000001  0.37500000000000006  1.0000
  Nb  Nb32      1.0  0.7500000000000001  0.7500000000000001  0.5  1.0000
  Ta  Ta35      1.0  0.8750000000000001  0.8750000000000001  0.625  1.0000
  Mo  Mo53      1.0  0.7500000000000001  0.7500000000000001  0.7500000000000001  1.0000
  Mo  Mo54      1.0  0.8750000000000001  0.8750000000000001  0.8750000000000001  1.0000
