data_image0
_chemical_formula_structural       TaWNbWMoTaWMoTaNbWTaW3NbWTaW2TaMo2WTaMoWMoNbW2TaMoWTaWMoWMoTa2NbTa3NbMoW2MoTaNbMoTaWTa4W2MoWTa3NbWTa2W3MoNbWMoNb2TaWTaNbMoNbW3TaWMo2Ta2W3TaMoWMoTaMoWNbTa3MoTa3W3TaMoTaNbTaMoWTaNbTaNbW
_chemical_formula_sum              "Ta43 W43 Nb17 Mo24"
_cell_length_a       12.8
_cell_length_b       12.8
_cell_length_c       12.8
_cell_angle_alpha    90.0
_cell_angle_beta     90.0
_cell_angle_gamma    90.0

_space_group_name_H-M_alt    "P 1"
_space_group_IT_number       1

loop_
  _space_group_symop_operation_xyz
  'x, y, z'

loop_
  _atom_site_type_symbol
  _atom_site_label
  _atom_site_symmetry_multiplicity
  _atom_site_fract_x
  _atom_site_fract_y
  _atom_site_fract_z
  _atom_site_occupancy
  Ta  Ta1       1.0  0.9981609548724234  0.0006470440208098361  0.9996663787203964  1.0000
  W   W1        1.0  0.12492434849291509  0.1247121539605246  0.12606418656348015  1.0000
  Nb  Nb1       1.0  0.0027139977522199826  0.998406327104491  0.24980715758474173  1.0000
  W   W2        1.0  0.12189441909952205  0.12403170915363264  0.37753799650017317  1.0000
  Mo  Mo1       1.0  0.9998769772125008  0.0010527861342714538  0.501295765193716  1.0000
  Ta  Ta2       1.0  0.12543544172244403  0.11839515696784492  0.6267868574055203  1.0000
  W   W3        1.0  6.388617551328832e-06  0.0016041545725115434  0.7506245350461556  1.0000
  Mo  Mo2       1.0  0.12286029912204316  0.12532263730086288  0.877076943027354  1.0000
  Ta  Ta3       1.0  0.0004198111514748192  0.24600882478008285  0.9972454453635077  1.0000
  Nb  Nb2       1.0  0.12226997326365653  0.37344964302663014  0.12576118417103338  1.0000
  W   W4        1.0  1.996799859502804e-05  0.24562143071435394  0.2513832774708108  1.0000
  Ta  Ta4       1.0  0.12335272240076417  0.375554695401233  0.3791127366516553  1.0000
  W   W5        1.0  0.9990157300789182  0.24813025653630288  0.5023068992699274  1.0000
  W   W6        1.0  0.12389278200838327  0.3746276099996201  0.6270765426414888  1.0000
  W   W7        1.0  0.9997310194458098  0.2477091611845086  0.7472986937425609  1.0000
  Nb  Nb3       1.0  0.13105696327387134  0.3813610977914459  0.8649779699034137  1.0000
  W   W8        1.0  0.0020158376675851004  0.5004686104079407  0.9995935939406285  1.0000
  Ta  Ta5       1.0  0.12113240847767653  0.6222310912870882  0.1246254586916149  1.0000
  W   W9        1.0  0.9992675614817212  0.5024788803084095  0.25154945385988214  1.0000
  W   W10       1.0  0.12613650212129465  0.6245381882593548  0.37624682360402667  1.0000
  Ta  Ta6       1.0  0.9978271505924167  0.5019501286237381  0.5062389233770536  1.0000
  Mo  Mo3       1.0  0.12508948821994115  0.6238966211519446  0.6254586239678164  1.0000
  Mo  Mo4       1.0  0.003200564152633807  0.5002524612005415  0.7506299685397145  1.0000
  W   W11       1.0  0.12719847827646563  0.6248890633039603  0.8704445249816833  1.0000
  Ta  Ta7       1.0  0.0001320593486475775  0.7528102260208676  0.001083568127393154  1.0000
  Mo  Mo5       1.0  0.12460844823085393  0.8758625542641795  0.12293713367437599  1.0000
  W   W12       1.0  0.9994574799580371  0.7510660780379674  0.24991169332764018  1.0000
  Mo  Mo6       1.0  0.12798166375891842  0.8726321124571395  0.37940837882631495  1.0000
  Nb  Nb4       1.0  0.009374629658924463  0.7488032757774541  0.4994476881579635  1.0000
  W   W13       1.0  0.12953774594585582  0.8724565620984932  0.6245899266049697  1.0000
  W   W14       1.0  0.0034568929721078344  0.7495503064134756  0.7485735103770187  1.0000
  Ta  Ta8       1.0  0.12779730113552618  0.8764691964134177  0.8671270062222108  1.0000
  Mo  Mo7       1.0  0.2507004788762939  0.9998871671615757  0.0005505032787980219  1.0000
  W   W15       1.0  0.3745784486248829  0.12417722011860541  0.12370860223755353  1.0000
  Ta  Ta9       1.0  0.24761160984734035  0.0001226143926752184  0.2528915870685936  1.0000
  W   W16       1.0  0.373824219322888  0.12438425119237094  0.3769320341259799  1.0000
  Mo  Mo8       1.0  0.24868868645924225  0.9957221399905921  0.4987788059264564  1.0000
  W   W17       1.0  0.37307661719833585  0.1200651954066535  0.6252938512325645  1.0000
  Mo  Mo9       1.0  0.25026188803273886  0.9973809474833775  0.7491275145004817  1.0000
  Ta  Ta10      1.0  0.37033054701645807  0.12356640731405842  0.8714589773272646  1.0000
  Ta  Ta11      1.0  0.24855603443204294  0.24900800837011783  0.9991964264887944  1.0000
  Nb  Nb5       1.0  0.37819969217054944  0.37571540175565354  0.12129661831719088  1.0000
  Ta  Ta12      1.0  0.25156104153189907  0.24818502241886004  0.2522306379374412  1.0000
  Ta  Ta13      1.0  0.38435329449119704  0.382628965280398  0.3890890100776936  1.0000
  Ta  Ta14      1.0  0.2486300065715918  0.24483279541779449  0.4995767760239797  1.0000
  Nb  Nb6       1.0  0.3671778354884084  0.36417055445388863  0.6330430277379734  1.0000
  Mo  Mo10      1.0  0.24588035427103458  0.2478376540677119  0.750946861656282  1.0000
  W   W18       1.0  0.3739695310880315  0.3767929508528233  0.8748825240773319  1.0000
  W   W19       1.0  0.2495650307189537  0.49937222143574  0.9983697813019825  1.0000
  Mo  Mo11      1.0  0.37391811666052516  0.6274164728392101  0.12401666881060405  1.0000
  Ta  Ta15      1.0  0.2514265898349014  0.4990641498198276  0.24908301921356182  1.0000
  Nb  Nb7       1.0  0.3728784488775932  0.63059800644378  0.3668690881744173  1.0000
  Mo  Mo12      1.0  0.24569183923561363  0.4997245756740569  0.5008183133735031  1.0000
  Ta  Ta16      1.0  0.4478846776704496  0.5507510277333773  0.5490410772246355  1.0000
  W   W20       1.0  0.2618588498077289  0.5104326085206435  0.7363320183787312  1.0000
  Ta  Ta17      1.0  0.3729727058134157  0.6205625891585633  0.8780206764439312  1.0000
  Ta  Ta18      1.0  0.24782860489723457  0.7488773250886052  0.9999244894060129  1.0000
  Ta  Ta19      1.0  0.3767875066926263  0.8753471180533163  0.12301968680284035  1.0000
  Ta  Ta20      1.0  0.24378262723489613  0.754927453386912  0.25223807332551584  1.0000
  W   W21       1.0  0.37385772861809696  0.8725382882278898  0.37737838371318505  1.0000
  W   W22       1.0  0.2626775791116193  0.7383651943236282  0.5104778266775251  1.0000
  Mo  Mo13      1.0  0.3728216895550989  0.877351822162581  0.623172765811564  1.0000
  W   W23       1.0  0.2515466807485787  0.7443100263544595  0.741948291195418  1.0000
  Ta  Ta21      1.0  0.37344638302480077  0.8731153081415105  0.8696682352214629  1.0000
  Ta  Ta22      1.0  0.5025919331958336  0.0007297546238166235  0.9944166566708514  1.0000
  Ta  Ta23      1.0  0.6253659784288528  0.12671386476582144  0.12259023037383047  1.0000
  Nb  Nb8       1.0  0.4991203774200236  0.999784396544276  0.2526462801862677  1.0000
  W   W24       1.0  0.6248648192504311  0.12643102945328755  0.3761142246509416  1.0000
  Ta  Ta24      1.0  0.49746759888725456  0.997596411430674  0.49772760358380247  1.0000
  Ta  Ta25      1.0  0.6224155891709144  0.12389448569394088  0.6238343244763233  1.0000
  W   W25       1.0  0.50029673643241  0.9969516346652904  0.7488522306694259  1.0000
  W   W26       1.0  0.6257337792756505  0.12413993091190219  0.8751868495433744  1.0000
  W   W27       1.0  0.4989345607708798  0.2491891061642332  0.9999673762967335  1.0000
  Mo  Mo14      1.0  0.626797858761843  0.3759480996925444  0.1272297213030919  1.0000
  Nb  Nb9       1.0  0.49979472178013323  0.25060604884470267  0.25263893762642686  1.0000
  W   W28       1.0  0.619076885541126  0.3806188649169716  0.3820749579563444  1.0000
  Mo  Mo15      1.0  0.4988414464459037  0.2455687537168301  0.5004985407352004  1.0000
  Nb  Nb10      1.0  0.6125917057066157  0.38107634827943293  0.6150452572107743  1.0000
  Nb  Nb11      1.0  0.5003198896990244  0.24752334823060185  0.7517118466754437  1.0000
  Ta  Ta26      1.0  0.622857598498121  0.37384909720216963  0.8778518173989526  1.0000
  W   W29       1.0  0.5009299866618299  0.5003519840706481  0.0011588697506717375  1.0000
  Ta  Ta27      1.0  0.6248169364190518  0.6286544564029508  0.12645573713036337  1.0000
  Nb  Nb12      1.0  0.5041587057123844  0.5024950140176659  0.2498967018549666  1.0000
  Mo  Mo16      1.0  0.6181674490588931  0.6209782958802255  0.3822205745956406  1.0000
  Nb  Nb13      1.0  0.6317956697229515  0.6281225147632017  0.6263689773857701  1.0000
  W   W30       1.0  0.49983278750044385  0.5003351466940369  0.7547705654176413  1.0000
  W   W31       1.0  0.6229975533458469  0.6270123586706366  0.8741643275993107  1.0000
  W   W32       1.0  0.5008443571072496  0.7496861852185734  0.996654589632838  1.0000
  Ta  Ta28      1.0  0.6255147130895025  0.8748923561309199  0.12420273316113477  1.0000
  W   W33       1.0  0.501642298983385  0.7527693828822957  0.2510126813679756  1.0000
  Mo  Mo17      1.0  0.6258700356391932  0.875090477105195  0.373826450117336  1.0000
  Mo  Mo18      1.0  0.4989100184801918  0.7539154778085301  0.4990357900614091  1.0000
  Ta  Ta29      1.0  0.624571401588692  0.8747371602268061  0.6251935534654035  1.0000
  Ta  Ta30      1.0  0.48603032606018803  0.7383532487905262  0.7346522463249371  1.0000
  W   W34       1.0  0.6210913194868753  0.8714234159561525  0.8713764241746402  1.0000
  W   W35       1.0  0.7513898248185866  0.000440171568454021  0.9989281533256175  1.0000
  W   W36       1.0  0.8748523463631384  0.1256713153689066  0.12538145633199468  1.0000
  Ta  Ta31      1.0  0.7526483361763309  0.0003111844163910993  0.2521087279761456  1.0000
  Mo  Mo19      1.0  0.8750762527235503  0.12523196263173245  0.3742807561171732  1.0000
  W   W37       1.0  0.7502101270988458  0.0021523891249450077  0.49858193975754195  1.0000
  Mo  Mo20      1.0  0.8742867028414446  0.12502566492902667  0.6245330068876478  1.0000
  Ta  Ta32      1.0  0.7528395780537114  0.0024956892591607317  0.7534405014680197  1.0000
  Mo  Mo21      1.0  0.8743101357346339  0.12511074270438283  0.8759467830272494  1.0000
  W   W38       1.0  0.7502999075611566  0.24745637661517192  0.9994302260648142  1.0000
  Nb  Nb14      1.0  0.8752552789238134  0.3760258017595214  0.12526687775560208  1.0000
  Ta  Ta33      1.0  0.7480370423720751  0.2525569848656096  0.2521638099810631  1.0000
  Ta  Ta34      1.0  0.8773126497593248  0.37612495049042516  0.3732721688331767  1.0000
  Ta  Ta35      1.0  0.7523669473820713  0.24979859191159112  0.4999387560736817  1.0000
  Mo  Mo22      1.0  0.8754777424292248  0.3744535582915126  0.6251687634976735  1.0000
  Ta  Ta36      1.0  0.7539459224756786  0.24969500376627304  0.7476398201884693  1.0000
  Ta  Ta37      1.0  0.8791155034310981  0.3749507587643659  0.873949644150251  1.0000
  Ta  Ta38      1.0  0.7489289173955973  0.5009051885358319  0.0022073417114319605  1.0000
  W   W39       1.0  0.8743156520101427  0.6253487016664295  0.12890928366287846  1.0000
  W   W40       1.0  0.747990364643668  0.5023031261207501  0.25371690480369324  1.0000
  W   W41       1.0  0.8768420511705826  0.6267116280576888  0.37103898631845345  1.0000
  Ta  Ta39      1.0  0.7510428928879737  0.502505258206384  0.4976977886127418  1.0000
  Mo  Mo23      1.0  0.8770084937023682  0.6276293841740727  0.6233486990479049  1.0000
  Ta  Ta40      1.0  0.751410676827919  0.4983288417682072  0.7467668051420028  1.0000
  Nb  Nb15      1.0  0.8794778891468382  0.6237385780863188  0.875549426415918  1.0000
  Ta  Ta41      1.0  0.7525199643179482  0.7535949828007847  0.9999498826635483  1.0000
  Mo  Mo24      1.0  0.8739193789535595  0.8750952596797965  0.12509408289598753  1.0000
  W   W42       1.0  0.7501821848819479  0.7483877374281256  0.25260600621658685  1.0000
  Ta  Ta42      1.0  0.8791769277343844  0.8746388441135683  0.37663076258948025  1.0000
  Nb  Nb16      1.0  0.7498097679592385  0.7515277435292416  0.4946924692590115  1.0000
  Ta  Ta43      1.0  0.8813363674557461  0.8781707940289436  0.6233766036812141  1.0000
  Nb  Nb17      1.0  0.7539495555573351  0.7512078410411311  0.7518433537680492  1.0000
  W   W43       1.0  0.8768627655231129  0.876110207691328  0.8732575686030615  1.0000
