data_image0
_chemical_formula_structural       WTaNbTaNbWNbWTa2WTaW3TaWTa5W2TaNbTa4W2Ta4WTaWTaWTaNbWTa2W4TaW3Ta2Nb2TaWTa3WTaNb2Ta2WTa3W2TaW2Ta2WNbW2Ta2WTa3NbW3Ta3NbTa4NbTa2NbTaW2TaWTa2WTaW3TaWTaW2NbTa2W
_chemical_formula_sum              "W48 Ta64 Nb15"
_cell_length_a       12.8
_cell_length_b       12.8
_cell_length_c       12.8
_cell_angle_alpha    90.0
_cell_angle_beta     90.0
_cell_angle_gamma    90.0

_space_group_name_H-M_alt    "P 1"
_space_group_IT_number       1

loop_
  _space_group_symop_operation_xyz
  'x, y, z'

loop_
  _atom_site_type_symbol
  _atom_site_label
  _atom_site_symmetry_multiplicity
  _atom_site_fract_x
  _atom_site_fract_y
  _atom_site_fract_z
  _atom_site_occupancy
  W   W1        1.0  0.9998816934715962  0.00047847756964907216  0.9980997665108831  1.0000
  Ta  Ta1       1.0  0.12463122797120509  0.12838311730852708  0.12169574166344885  1.0000
  Nb  Nb1       1.0  0.0011163737031189666  0.9994401651762481  0.24958002503818286  1.0000
  Ta  Ta2       1.0  0.1245399901314723  0.12755200988613294  0.37700439306916306  1.0000
  Nb  Nb2       1.0  0.0008919219477577824  0.0004028061770143385  0.501507904723392  1.0000
  W   W2        1.0  0.12649821881753742  0.12626037459520564  0.6277769874984606  1.0000
  Nb  Nb3       1.0  0.0033104853114030064  5.147683846421455e-05  0.7527357197479777  1.0000
  W   W3        1.0  0.1261353924416288  0.12604577945260836  0.872654199907274  1.0000
  Ta  Ta3       1.0  0.001412856629289959  0.2519065550739988  0.9960320176847808  1.0000
  Ta  Ta4       1.0  0.13002594005267704  0.3794031350907989  0.12647285206030448  1.0000
  W   W4        1.0  0.001733603988588857  0.25230153616642337  0.2506522731352722  1.0000
  Ta  Ta5       1.0  0.12901806340880834  0.3783933640678336  0.37648809655363275  1.0000
  W   W5        1.0  0.0009592454536144043  0.251333800003132  0.5026889804948118  1.0000
  W   W6        1.0  0.12448985381051897  0.37490050062009417  0.6247408509318555  1.0000
  W   W7        1.0  0.0022310515977086703  0.2528739950450705  0.7476964863456044  1.0000
  Ta  Ta6       1.0  0.12477140541102037  0.3754340302088821  0.8740163625609637  1.0000
  W   W8        1.0  0.0014130082543308573  0.5007526276257399  0.9984695404159112  1.0000
  Ta  Ta7       1.0  0.1275436168976302  0.6207465988979434  0.12380878120703079  1.0000
  Ta  Ta8       1.0  0.9993229670788729  0.49901466940082323  0.2508704394702973  1.0000
  Ta  Ta9       1.0  0.11783106674647305  0.6234680173884206  0.37628662920339506  1.0000
  Ta  Ta10      1.0  0.9980222856133358  0.4973188264683515  0.5062269395609914  1.0000
  Ta  Ta11      1.0  0.1275613708450699  0.624184114073467  0.6250320679108186  1.0000
  W   W9        1.0  0.9987232219109728  0.4997456373259926  0.7507418733210014  1.0000
  W   W10       1.0  0.12398455131340233  0.6233771755920708  0.8741168190254784  1.0000
  Ta  Ta12      1.0  0.00041970313857017124  0.7514464639278434  0.9944548644283063  1.0000
  Nb  Nb4       1.0  0.12433744066353843  0.8737446958811667  0.1236005912514017  1.0000
  Ta  Ta13      1.0  0.997399785679549  0.7502478490972688  0.25042952965726  1.0000
  Ta  Ta14      1.0  0.12825935864988697  0.8732980093217135  0.3793188316167703  1.0000
  Ta  Ta15      1.0  0.9987361361198654  0.7485945375488666  0.5023520884206204  1.0000
  Ta  Ta16      1.0  0.13105910508494023  0.8741780020165008  0.6232770086089229  1.0000
  W   W11       1.0  0.0018894366548209845  0.7487356016157782  0.749486791897127  1.0000
  W   W12       1.0  0.12404478105868125  0.8748087561264289  0.8729882399417477  1.0000
  Ta  Ta17      1.0  0.2480660469056213  0.9978404942586896  0.9956941699007518  1.0000
  Ta  Ta18      1.0  0.3739590918097712  0.12799992122538775  0.12363105833080806  1.0000
  Ta  Ta19      1.0  0.25055458999630537  0.9989507774611635  0.24920477602922972  1.0000
  Ta  Ta20      1.0  0.3763349484095286  0.12862199543508826  0.37723062284849074  1.0000
  W   W13       1.0  0.2503441388697199  0.9991091194876752  0.5016770465720387  1.0000
  Ta  Ta21      1.0  0.37198892356689045  0.12433689100968552  0.6252222611384023  1.0000
  W   W14       1.0  0.2500105785243266  0.999527318732982  0.7492227993654831  1.0000
  Ta  Ta22      1.0  0.37088679280354614  0.1272931836652394  0.8734832788505393  1.0000
  W   W15       1.0  0.2509372346434423  0.25280622846165884  0.9981773197137636  1.0000
  Ta  Ta23      1.0  0.37587404135427993  0.3807764831641043  0.12645813471409967  1.0000
  Nb  Nb5       1.0  0.25111322589932367  0.2532774704996217  0.24987055301804284  1.0000
  W   W16       1.0  0.37745871688113136  0.3700424708849599  0.3772364742098261  1.0000
  Ta  Ta24      1.0  0.2479016949431516  0.25206925606148894  0.504793799659128  1.0000
  Ta  Ta25      1.0  0.37523040846599237  0.3795799615551871  0.6194274098602797  1.0000
  W   W17       1.0  0.24893115640188496  0.2509281562922177  0.7498750352279849  1.0000
  W   W18       1.0  0.37385323580561425  0.3748857810581935  0.8738384089965202  1.0000
  W   W19       1.0  0.2511064597135217  0.49923538538609086  0.9988274046434499  1.0000
  W   W20       1.0  0.3752365851997092  0.622743335710721  0.11742563879211446  1.0000
  Ta  Ta26      1.0  0.2725549825535035  0.5185178995270623  0.26880807539368085  1.0000
  W   W21       1.0  0.4849411550559146  0.5156879336545919  0.48458521314368286  1.0000
  W   W22       1.0  0.2528772778238495  0.5036189229469572  0.4979017032797464  1.0000
  W   W23       1.0  0.37589026052030655  0.6236141091037595  0.6290540982186045  1.0000
  Ta  Ta27      1.0  0.2481379169864154  0.4977212098163076  0.7496574634742821  1.0000
  Ta  Ta28      1.0  0.376242694197298  0.62176541368558  0.8738903848690865  1.0000
  Nb  Nb6       1.0  0.25031222517841706  0.7485242052978447  0.9973820425845141  1.0000
  Nb  Nb7       1.0  0.37825554694197355  0.8696893921395549  0.1271522893968641  1.0000
  Ta  Ta29      1.0  0.2528631691948888  0.7470874949697011  0.2524806026699218  1.0000
  W   W24       1.0  0.37507078561192675  0.8830849034760558  0.37695354384263363  1.0000
  Ta  Ta30      1.0  0.27000291776346885  0.73258072891701  0.48334527550800027  1.0000
  Ta  Ta31      1.0  0.3749681654295143  0.8707400345764216  0.6229326777028755  1.0000
  Ta  Ta32      1.0  0.25011917399375405  0.750505251873078  0.7518243180555573  1.0000
  W   W25       1.0  0.37500004312691854  0.874955911800202  0.8732688309484976  1.0000
  Ta  Ta33      1.0  0.4989661662826039  0.9975540007329841  0.9993862863995232  1.0000
  Nb  Nb8       1.0  0.6249040292872827  0.12643816649147332  0.12558440555459122  1.0000
  Nb  Nb9       1.0  0.49992527700622513  0.9991402006173854  0.25104509575673667  1.0000
  Ta  Ta34      1.0  0.6248239635400566  0.13013303566816944  0.3772377719504167  1.0000
  Ta  Ta35      1.0  0.5022900839937359  0.9988839766479034  0.5028150607571958  1.0000
  W   W26       1.0  0.6245197776798941  0.1279748745547451  0.62464122532553  1.0000
  Ta  Ta36      1.0  0.4989995638741547  0.9975724185599265  0.7489330611245261  1.0000
  Ta  Ta37      1.0  0.6231812088084033  0.1262306299717787  0.8728855809044818  1.0000
  Ta  Ta38      1.0  0.5000737033057517  0.25463599731786835  0.999431378466274  1.0000
  W   W27       1.0  0.6238652968127273  0.3779529523836203  0.12653341933383838  1.0000
  W   W28       1.0  0.50030890211677  0.25251948634982213  0.24958150921512282  1.0000
  Ta  Ta39      1.0  0.6202615743907216  0.3807161013411481  0.3780840126002722  1.0000
  W   W29       1.0  0.5010335068871599  0.2523416421366259  0.5026262364317596  1.0000
  W   W30       1.0  0.6219082281539978  0.37872821271340734  0.6192273324515967  1.0000
  Ta  Ta40      1.0  0.49903424458552287  0.2530211195837761  0.7465179639884991  1.0000
  Ta  Ta41      1.0  0.6252088455343324  0.3788809770218677  0.8722738361229088  1.0000
  W   W31       1.0  0.5001403781756839  0.49890577194535984  0.9984521166656662  1.0000
  Nb  Nb10      1.0  0.621116012081944  0.6228664614365046  0.1297765510877041  1.0000
  W   W32       1.0  0.4980747546026132  0.5004294464956847  0.2526582998933347  1.0000
  W   W33       1.0  0.6307264726409546  0.6207449590850562  0.37650696703672326  1.0000
  Ta  Ta42      1.0  0.6212403702519204  0.6227335004485212  0.6202525562824444  1.0000
  Ta  Ta43      1.0  0.5018803170259087  0.5002801448743996  0.7473338289904513  1.0000
  W   W34       1.0  0.6263115014422176  0.6241825586573034  0.874045811538331  1.0000
  Ta  Ta44      1.0  0.5008754895927099  0.7462417626986123  0.9983069359189295  1.0000
  Ta  Ta45      1.0  0.6232108407617843  0.8671918772226717  0.12974536929224717  1.0000
  Ta  Ta46      1.0  0.4803131098329277  0.7250533198780195  0.27341188940897443  1.0000
  Nb  Nb11      1.0  0.6205944023400931  0.867558965994336  0.3751689984968365  1.0000
  W   W35       1.0  0.49711357525577626  0.7457734536553131  0.4989214861554806  1.0000
  W   W36       1.0  0.6235077725591471  0.8719330879121163  0.6251564187736165  1.0000
  W   W37       1.0  0.5004627514112142  0.7492971158270048  0.7488780854906983  1.0000
  Ta  Ta47      1.0  0.6257044586630767  0.8708032723238568  0.874030375909277  1.0000
  Ta  Ta48      1.0  0.7504181192392888  0.9989994247614747  0.9977361035300268  1.0000
  Ta  Ta49      1.0  0.8771138138667806  0.126315903013909  0.12685360715119642  1.0000
  Nb  Nb12      1.0  0.7492794946097546  0.9969077562112377  0.25323172943532657  1.0000
  Ta  Ta50      1.0  0.8757433533161041  0.12808176247450012  0.3757126513532555  1.0000
  Ta  Ta51      1.0  0.7478123805228456  0.9994136228435798  0.5021296540645507  1.0000
  Ta  Ta52      1.0  0.8784658580587107  0.1294677128287221  0.6237348931120351  1.0000
  Ta  Ta53      1.0  0.7488861903191378  0.0007531112209057259  0.7474535106190544  1.0000
  Nb  Nb13      1.0  0.8777150680600101  0.12649135766474817  0.8731613236395774  1.0000
  Ta  Ta54      1.0  0.7502699502801559  0.2521277128220816  0.9976556305507076  1.0000
  Ta  Ta55      1.0  0.8764108391954216  0.3765386148130202  0.12398411915856125  1.0000
  Nb  Nb14      1.0  0.7481095064998132  0.2542561571890227  0.25009806041437643  1.0000
  Ta  Ta56      1.0  0.8729919016172428  0.3724945054877726  0.37937324123555777  1.0000
  W   W38       1.0  0.7479113428456495  0.2520597445881497  0.5031155283470725  1.0000
  W   W39       1.0  0.8751637911059295  0.3764578952408593  0.627763853220029  1.0000
  Ta  Ta57      1.0  0.7505517550889584  0.2547330357862577  0.746380701568512  1.0000
  W   W40       1.0  0.8761315885239024  0.3768589848248766  0.873450893201908  1.0000
  Ta  Ta58      1.0  0.7474748845262196  0.5007361929870244  0.9979003913855468  1.0000
  Ta  Ta59      1.0  0.8727641379207325  0.6252345681147042  0.1230839706840528  1.0000
  W   W41       1.0  0.7488428074032472  0.4986972289098454  0.24956974346361183  1.0000
  Ta  Ta60      1.0  0.8692843256899019  0.621629167835954  0.3765968035487696  1.0000
  W   W42       1.0  0.7478334819336936  0.4979037361395408  0.5044430915913463  1.0000
  W   W43       1.0  0.8746992329394077  0.623219196720763  0.626763542839054  1.0000
  W   W44       1.0  0.7503783691398119  0.49978035774559726  0.7467254672463243  1.0000
  Ta  Ta61      1.0  0.8764742840268891  0.6226232626594417  0.8723716791157915  1.0000
  W   W45       1.0  0.7492827489437099  0.7484085918231621  0.0002341167187117119  1.0000
  Ta  Ta62      1.0  0.8725772562844891  0.8738938829268856  0.12302493940890724  1.0000
  W   W46       1.0  0.7471567891564485  0.7479484578116723  0.25101239177084056  1.0000
  W   W47       1.0  0.8743518438669501  0.8749471105633146  0.3756780007355826  1.0000
  Nb  Nb15      1.0  0.7489720066086757  0.7498914618400203  0.5012303907590758  1.0000
  Ta  Ta63      1.0  0.876978251075568  0.8737810582186829  0.6282457186532144  1.0000
  Ta  Ta64      1.0  0.7498017089244992  0.7468595069013589  0.7504855416079981  1.0000
  W   W48       1.0  0.8753569469835537  0.8738291199701603  0.8745124168509817  1.0000
