data_image0
_chemical_formula_structural       Mo9WMoWMo2TaMo3W2Mo4W3Mo2WTa2Mo2Ta2Mo5WMoWMoWMo5TaMo5W2Mo9TaWMoTa2Mo4TaMoWTaMo3WTaWMo4W2Mo4WMo3TaMo4TaMoW2TaMo9NbWMo3TaMo
_chemical_formula_sum              "Mo87 W23 Ta16 Nb1"
_cell_length_a       12.8
_cell_length_b       12.8
_cell_length_c       12.8
_cell_angle_alpha    90.0
_cell_angle_beta     90.0
_cell_angle_gamma    90.0

_space_group_name_H-M_alt    "P 1"
_space_group_IT_number       1

loop_
  _space_group_symop_operation_xyz
  'x, y, z'

loop_
  _atom_site_type_symbol
  _atom_site_label
  _atom_site_symmetry_multiplicity
  _atom_site_fract_x
  _atom_site_fract_y
  _atom_site_fract_z
  _atom_site_occupancy
  Mo  Mo1       1.0  0.0007195960975549742  0.00011031520191939638  0.9992573116564616  1.0000
  Mo  Mo2       1.0  0.12347084319400897  0.12625261842138696  0.12507296262144174  1.0000
  Mo  Mo3       1.0  0.9972594249378505  0.0003167681054727042  0.25041835385114014  1.0000
  Mo  Mo4       1.0  0.12429476834171194  0.12807933081146852  0.3759335772707339  1.0000
  Mo  Mo5       1.0  0.0012157390132141674  0.0004347382201947981  0.4996890727692258  1.0000
  Mo  Mo6       1.0  0.12862970899033022  0.12408781600623486  0.6232475057379739  1.0000
  Mo  Mo7       1.0  0.004206344569572518  0.9984793863427218  0.7483598592475399  1.0000
  Mo  Mo8       1.0  0.1256165176250453  0.12514312586498355  0.87573935471235  1.0000
  Mo  Mo9       1.0  0.00035484932369536437  0.2505936852092847  0.0018013889436934542  1.0000
  W   W1        1.0  0.125070939378123  0.3758384831662618  0.12690370143983948  1.0000
  Mo  Mo10      1.0  0.9999917063246772  0.2505389134714343  0.24982947540814987  1.0000
  W   W2        1.0  0.123483124982014  0.3750381141618841  0.3747139739353039  1.0000
  Mo  Mo11      1.0  0.003375918974704818  0.24933537589305585  0.5003321878810669  1.0000
  Mo  Mo12      1.0  0.1250253918911471  0.374891868279802  0.6239203329350446  1.0000
  Ta  Ta1       1.0  0.003973477930623507  0.24601788301595517  0.7493468086222087  1.0000
  Mo  Mo13      1.0  0.12532246836289004  0.3753558483179828  0.8775510029656526  1.0000
  Mo  Mo14      1.0  0.0007660573544414329  0.5006516813879678  0.0015991164747082259  1.0000
  Mo  Mo15      1.0  0.12537228476511747  0.6242021797848415  0.1275745887420203  1.0000
  W   W3        1.0  0.000770480973078216  0.5025770336137187  0.24837423635049605  1.0000
  W   W4        1.0  0.12398507107870062  0.6231674305062217  0.3761159680014188  1.0000
  Mo  Mo16      1.0  0.9998278192687988  0.5003256966871462  0.49954556918770776  1.0000
  Mo  Mo17      1.0  0.1280903593974147  0.6267379535394957  0.6238816699226158  1.0000
  Mo  Mo18      1.0  0.9995862492941973  0.49879033974905496  0.7494332259256399  1.0000
  Mo  Mo19      1.0  0.1252413743398103  0.6239575492082405  0.875609135628078  1.0000
  W   W5        1.0  0.0007854150200812637  0.746586280128517  1.8832994698703127e-05  1.0000
  W   W6        1.0  0.12409965422153099  0.874254580414736  0.12204349545707927  1.0000
  W   W7        1.0  0.9994356112831051  0.749104588727588  0.25025225489363323  1.0000
  Mo  Mo20      1.0  0.1232990292042368  0.8736443178286966  0.37395740757317947  1.0000
  Mo  Mo21      1.0  0.00034566188212352015  0.7500116227352506  0.49847422618293147  1.0000
  W   W8        1.0  0.12784627332681267  0.8762952639905246  0.6219121672305105  1.0000
  Ta  Ta2       1.0  0.0009711730565275249  0.7453724339010492  0.7480735160506135  1.0000
  Ta  Ta3       1.0  0.13229948642173092  0.8765968978629561  0.8740529167273257  1.0000
  Mo  Mo22      1.0  0.25170226214639774  0.0012615964087807287  0.0004503424508648207  1.0000
  Mo  Mo23      1.0  0.3743492737733901  0.12682155148706364  0.12759924388995392  1.0000
  Ta  Ta4       1.0  0.24553976126423102  0.0008640192446592401  0.24936469074653872  1.0000
  Ta  Ta5       1.0  0.37420005449021293  0.13367551861083116  0.3748996575073761  1.0000
  Mo  Mo24      1.0  0.2491833571142365  0.0034331596797065843  0.5003549223571618  1.0000
  Mo  Mo25      1.0  0.3766274146043278  0.12555465391709247  0.6269770544199587  1.0000
  Mo  Mo26      1.0  0.25324628217401457  0.000249563338841286  0.7487898486962079  1.0000
  Mo  Mo27      1.0  0.37422073652205906  0.12378088910007336  0.8761481029279093  1.0000
  Mo  Mo28      1.0  0.24824758438729805  0.2497817265897645  0.0010850411863703691  1.0000
  W   W9        1.0  0.3686086838115423  0.3758252791365265  0.12797320240986543  1.0000
  Mo  Mo29      1.0  0.24875928632631814  0.25409015180500294  0.2511524214240338  1.0000
  W   W10       1.0  0.4498179550153095  0.44203802002251874  0.45070928294598867  1.0000
  Mo  Mo30      1.0  0.25916587533512975  0.2615934834726003  0.4958416946132128  1.0000
  W   W11       1.0  0.3700744459384508  0.3711227594796957  0.6330775674563994  1.0000
  Mo  Mo31      1.0  0.2500117256844339  0.24808340957588434  0.7518131464297441  1.0000
  Mo  Mo32      1.0  0.3737571954255433  0.37418648957700534  0.8787200302914868  1.0000
  Mo  Mo33      1.0  0.2489264501720258  0.5000537889377528  0.002031682731614224  1.0000
  Mo  Mo34      1.0  0.3735076074461932  0.6261229812566511  0.1261848645895661  1.0000
  Mo  Mo35      1.0  0.25513861309939356  0.4967525587356838  0.25901081339628573  1.0000
  Ta  Ta6       1.0  0.3733755786742999  0.6299082383048775  0.37395683055953055  1.0000
  Mo  Mo36      1.0  0.24721984895773896  0.49949172119981766  0.5004371740286646  1.0000
  Mo  Mo37      1.0  0.38059256330180813  0.6149343337971213  0.6147615682039864  1.0000
  Mo  Mo38      1.0  0.24751392170608816  0.5000809022528547  0.7510347071198267  1.0000
  Mo  Mo39      1.0  0.3736351835508525  0.6276831413579664  0.8737204239292669  1.0000
  Mo  Mo40      1.0  0.25034363697552  0.7499288368586581  0.0007151631007591095  1.0000
  W   W12       1.0  0.3756201298222911  0.8746535490484104  0.12246038862215267  1.0000
  W   W13       1.0  0.2462786393919727  0.7514401316196452  0.24735728213348518  1.0000
  Mo  Mo41      1.0  0.3737349700251491  0.8777412126569444  0.3714007968741898  1.0000
  Mo  Mo42      1.0  0.25081864714201213  0.7521444234581833  0.49949590713682823  1.0000
  Mo  Mo43      1.0  0.37445980740828977  0.8726778193981275  0.6257918302705822  1.0000
  Mo  Mo44      1.0  0.2536068708173635  0.7482407794191904  0.747655142829572  1.0000
  Mo  Mo45      1.0  0.37756719076999945  0.8749591896862741  0.874976612248492  1.0000
  Mo  Mo46      1.0  0.49925521066620915  0.9993091241132843  0.00041439988609700656  1.0000
  Mo  Mo47      1.0  0.6236470876576694  0.12587124086705442  0.1287699605957333  1.0000
  Mo  Mo48      1.0  0.5003320479338307  0.004126756973292283  0.2482371446968044  1.0000
  Mo  Mo49      1.0  0.6261932402287406  0.12535818055775053  0.37577105932284777  1.0000
  Ta  Ta7       1.0  0.49936819996419973  0.995711701250232  0.4998166534851988  1.0000
  W   W14       1.0  0.6266625003522504  0.12415861335463456  0.6254123905109721  1.0000
  Mo  Mo50      1.0  0.502084584982353  0.9983796798963523  0.7506857008033525  1.0000
  Ta  Ta8       1.0  0.6248090539688079  0.12283363178559017  0.8759562073416185  1.0000
  Ta  Ta9       1.0  0.4969020569444128  0.24988739709712784  0.006400740055131108  1.0000
  Mo  Mo51      1.0  0.6240684188741495  0.3749808282331268  0.1258698187772084  1.0000
  Mo  Mo52      1.0  0.4947701974400856  0.26399509662025783  0.2620110166483578  1.0000
  Mo  Mo53      1.0  0.6325838070492849  0.37412231317439104  0.3730407124463627  1.0000
  Mo  Mo54      1.0  0.5008440292739778  0.24419093825914312  0.501584472244626  1.0000
  Ta  Ta10      1.0  0.617489653800591  0.3791544007074981  0.6133331853740267  1.0000
  Mo  Mo55      1.0  0.502264878514198  0.2495139654731511  0.751399716308922  1.0000
  W   W15       1.0  0.6266068246673345  0.37535105634531657  0.8750565074694333  1.0000
  Ta  Ta11      1.0  0.49843178019307  0.5034034278669429  0.0026850516069688167  1.0000
  Mo  Mo56      1.0  0.6258461560852224  0.6273286796113887  0.12716627715827533  1.0000
  Mo  Mo57      1.0  0.4993795747943089  0.5000539449740466  0.24742469345593976  1.0000
  Mo  Mo58      1.0  0.6170065037300413  0.6162863351775363  0.3800857669109641  1.0000
  W   W16       1.0  0.6200807886332972  0.6218436810365063  0.6165193342977161  1.0000
  Ta  Ta12      1.0  0.4940117911363204  0.5037685995066187  0.7523975904444344  1.0000
  W   W17       1.0  0.6268814287471842  0.6259756284818186  0.8751784324570386  1.0000
  Mo  Mo59      1.0  0.5002339694031512  0.7509945385479967  0.9984883200882845  1.0000
  Mo  Mo60      1.0  0.6230393593565924  0.8760404383768821  0.12570077738789162  1.0000
  Mo  Mo61      1.0  0.5002947456389953  0.7522583444992809  0.24993477532317132  1.0000
  Mo  Mo62      1.0  0.625599140183688  0.8732892188245566  0.37457688806062717  1.0000
  W   W18       1.0  0.5006896564014899  0.7541239785124001  0.5009763727113734  1.0000
  W   W19       1.0  0.6259809043187802  0.8734043980168089  0.6247073278600478  1.0000
  Mo  Mo63      1.0  0.501253566320303  0.748271840080892  0.7468222072028246  1.0000
  Mo  Mo64      1.0  0.6260265957744449  0.8726103376756935  0.8743445695601952  1.0000
  Mo  Mo65      1.0  0.7488377400030279  0.0007419036682125368  0.0030757823970078493  1.0000
  Mo  Mo66      1.0  0.8734684869063064  0.12655029585861438  0.12490053053871893  1.0000
  W   W20       1.0  0.747757292082793  0.0007785818675741425  0.25188690297578253  1.0000
  Mo  Mo67      1.0  0.8750715934251254  0.12251450092771882  0.3740369552022884  1.0000
  Mo  Mo68      1.0  0.7512692657818189  0.999044559021482  0.4986855799885398  1.0000
  Mo  Mo69      1.0  0.8758354692086779  0.12672134226155857  0.6236471414728424  1.0000
  Ta  Ta13      1.0  0.7586583951934216  0.997987299934543  0.7489789168553607  1.0000
  Mo  Mo70      1.0  0.8760383175371369  0.1257587962333576  0.8757667141650415  1.0000
  Mo  Mo71      1.0  0.7496703452996569  0.2506951354340711  0.9987227974620937  1.0000
  Mo  Mo72      1.0  0.87583729021302  0.3758931061380167  0.12581919284485554  1.0000
  Mo  Mo73      1.0  0.7490630622926796  0.24765820441387504  0.2480441236103258  1.0000
  Ta  Ta14      1.0  0.8767556732316288  0.3725411099728662  0.3762343040256736  1.0000
  Mo  Mo74      1.0  0.7515127402295563  0.24857970643657956  0.5017790248331865  1.0000
  W   W21       1.0  0.8755447237707291  0.3755628789919691  0.6247473601493235  1.0000
  W   W22       1.0  0.7502393564325427  0.2505970531659674  0.7476139528776253  1.0000
  Ta  Ta15      1.0  0.8743891373594896  0.37840579746464187  0.8776048321102079  1.0000
  Mo  Mo75      1.0  0.7482303831175935  0.500757634974951  5.9649066022942495e-05  1.0000
  Mo  Mo76      1.0  0.8748679094044634  0.6254913490878465  0.125682283279035  1.0000
  Mo  Mo77      1.0  0.7504578673049411  0.5020799330992908  0.2493790711652671  1.0000
  Mo  Mo78      1.0  0.8743414458457288  0.6267400071962745  0.373552882520872  1.0000
  Mo  Mo79      1.0  0.7522685731874759  0.5011978784832197  0.49880353198765826  1.0000
  Mo  Mo80      1.0  0.8737027044516786  0.6219270030027015  0.6229607091486902  1.0000
  Mo  Mo81      1.0  0.7463407344538482  0.4978601350979671  0.7479508429663285  1.0000
  Mo  Mo82      1.0  0.8745815261064043  0.6240573266818663  0.8765328449051153  1.0000
  Mo  Mo83      1.0  0.7499682404529044  0.7501297223759241  0.0015794275301591228  1.0000
  Nb  Nb1       1.0  0.8740299220189633  0.8765497138240705  0.12489104860909161  1.0000
  W   W23       1.0  0.74757910646879  0.7492282515397535  0.2524300979697911  1.0000
  Mo  Mo84      1.0  0.8741688816613387  0.8741645084370515  0.37389959381877197  1.0000
  Mo  Mo85      1.0  0.747038391401163  0.7485013537347893  0.4982616172437674  1.0000
  Mo  Mo86      1.0  0.8783522762271722  0.8745530393237978  0.6217328455909147  1.0000
  Ta  Ta16      1.0  0.7511913702887771  0.7461736463190606  0.7477808881342092  1.0000
  Mo  Mo87      1.0  0.8782441280641534  0.8745283951744591  0.875742333457008  1.0000
