data_image0
_chemical_formula_structural       MoWNb2W2MoWMo3WNbMo5WMoWNbWNbMoNbMoNb2Mo3WMo8NbW2Mo4NbMoWMo3Nb2WMoWNbW2MoNbMo4Nb2MoWMoWMo2W2MoWMoNb2Mo2WNbMoWNbMo3WNbMoWMoWMoW2NbW2NbMoWNb2WMoWMo2W2Mo4Nb3WMo2
_chemical_formula_sum              "Mo63 W36 Nb28"
_cell_length_a       12.8
_cell_length_b       12.8
_cell_length_c       12.8
_cell_angle_alpha    90.0
_cell_angle_beta     90.0
_cell_angle_gamma    90.0

_space_group_name_H-M_alt    "P 1"
_space_group_IT_number       1

loop_
  _space_group_symop_operation_xyz
  'x, y, z'

loop_
  _atom_site_type_symbol
  _atom_site_label
  _atom_site_symmetry_multiplicity
  _atom_site_fract_x
  _atom_site_fract_y
  _atom_site_fract_z
  _atom_site_occupancy
  Mo  Mo1       1.0  0.001643558155413116  0.0007116156227222944  0.9993696080465388  1.0000
  W   W1        1.0  0.12374338633328302  0.12665657755903653  0.12126914567938979  1.0000
  Nb  Nb1       1.0  0.9966902936219281  0.0018617385256313778  0.24980606723508886  1.0000
  Nb  Nb2       1.0  0.1275367751453389  0.1268901629682002  0.37508656060920303  1.0000
  W   W2        1.0  0.9999303349093216  0.0006839202574958381  0.5029064923897686  1.0000
  W   W3        1.0  0.1254645104176701  0.12506381551411222  0.6291971951619857  1.0000
  Mo  Mo2       1.0  0.9998994700696069  0.9999657183249292  0.7487266707310469  1.0000
  W   W4        1.0  0.12679748817052217  0.1254228184773246  0.8746600019799801  1.0000
  Mo  Mo3       1.0  0.998314244380363  0.2509312572032334  0.0012369894976561378  1.0000
  Mo  Mo4       1.0  0.12339785289695876  0.37449575632922116  0.12660969552783022  1.0000
  Mo  Mo5       1.0  0.00028638890144165575  0.2513086347512954  0.249000383596531  1.0000
  W   W5        1.0  0.1261683901672772  0.37608296081094716  0.37445482689616955  1.0000
  Nb  Nb3       1.0  0.9981224274886171  0.2507699284062145  0.5000136816857772  1.0000
  Mo  Mo6       1.0  0.1265983274196865  0.3735703940112616  0.6244263971568894  1.0000
  Mo  Mo7       1.0  0.001508681489670381  0.2500450967492813  0.7517871088726212  1.0000
  Mo  Mo8       1.0  0.12469667602395507  0.37334433817141666  0.8750685499406123  1.0000
  Mo  Mo9       1.0  0.9986907189162272  0.4995232948103096  0.0011661399606583617  1.0000
  Mo  Mo10      1.0  0.12364491664122926  0.6252870896770296  0.12615480676009358  1.0000
  W   W6        1.0  0.9991323793214306  0.5002882698508716  0.24977615377933596  1.0000
  Mo  Mo11      1.0  0.1261402788789805  0.6238664261912505  0.374076430321798  1.0000
  W   W7        1.0  0.9998183248564461  0.5007408386436722  0.49955244330528414  1.0000
  Nb  Nb4       1.0  0.12673191987570723  0.6252899033043324  0.6256030937054979  1.0000
  W   W8        1.0  2.944808925593921e-05  0.4986272201962186  0.7518644544605966  1.0000
  Nb  Nb5       1.0  0.12308983409668786  0.6271750358598427  0.876703000843696  1.0000
  Mo  Mo12      1.0  0.9993900823685332  0.7502822410538652  0.0005545155151494854  1.0000
  Nb  Nb6       1.0  0.12547917908936496  0.8751082033030779  0.12330518521218631  1.0000
  Mo  Mo13      1.0  0.9998164821073621  0.7484092551756099  0.249752788284385  1.0000
  Nb  Nb7       1.0  0.12780140823095557  0.8732286004611285  0.3753477230713451  1.0000
  Nb  Nb8       1.0  0.0005646659515453328  0.7492445553310417  0.5012360550488428  1.0000
  Mo  Mo14      1.0  0.12576358755377193  0.8761536524070634  0.6258727706374684  1.0000
  Mo  Mo15      1.0  0.9995629728680989  0.749688932976772  0.7509004576673175  1.0000
  Mo  Mo16      1.0  0.1252573237890903  0.8772635586860935  0.8746134173050313  1.0000
  W   W9        1.0  0.25082240180574905  0.002098534620855789  0.9993578172784197  1.0000
  Mo  Mo17      1.0  0.37466582170132356  0.12572942938377182  0.12601038940775888  1.0000
  Mo  Mo18      1.0  0.25019483838101425  0.001326606775414608  0.24764253194619085  1.0000
  Mo  Mo19      1.0  0.37626426113123745  0.12830939575316083  0.3736849334792687  1.0000
  Mo  Mo20      1.0  0.24826728233677586  0.9991180743894319  0.5021637256768763  1.0000
  Mo  Mo21      1.0  0.37267747983235516  0.12372314103011463  0.6257556753337701  1.0000
  Mo  Mo22      1.0  0.24944698682280492  0.0007410621361388331  0.7512665651860649  1.0000
  Mo  Mo23      1.0  0.3743035237693298  0.12658601722071447  0.8751051978010017  1.0000
  Mo  Mo24      1.0  0.24960626903628189  0.2479568707548102  9.749032727505893e-05  1.0000
  Nb  Nb9       1.0  0.37761393764295226  0.3701808395719919  0.12485455575919388  1.0000
  W   W10       1.0  0.2503834050652818  0.24996747160284133  0.24820399881742586  1.0000
  W   W11       1.0  0.36753910751775415  0.3740930183471899  0.3760980072483478  1.0000
  Mo  Mo25      1.0  0.2515441293372571  0.24940543770478843  0.5014295921648344  1.0000
  Mo  Mo26      1.0  0.38298641774012643  0.37673658206126726  0.6166020082532522  1.0000
  Mo  Mo27      1.0  0.25087277426571714  0.24955654358571974  0.7496006197107001  1.0000
  Mo  Mo28      1.0  0.37473489767468954  0.3742510848622704  0.873082047542237  1.0000
  Nb  Nb10      1.0  0.24736231405704026  0.4982506838218258  0.003280233724485325  1.0000
  Mo  Mo29      1.0  0.37348446760220355  0.6253955745291537  0.12503606575585344  1.0000
  W   W12       1.0  0.248912558385243  0.5010838123500567  0.2502498767208965  1.0000
  Mo  Mo30      1.0  0.37996037251502085  0.6163624761955077  0.3783331319939899  1.0000
  Mo  Mo31      1.0  0.24701498626219326  0.4996186098663799  0.4986240166160852  1.0000
  Mo  Mo32      1.0  0.38248404131184766  0.6185315707618775  0.6171599752047021  1.0000
  Nb  Nb11      1.0  0.2533069858931646  0.49433782757415917  0.7454875912109313  1.0000
  Nb  Nb12      1.0  0.37461944985009765  0.6257886806956791  0.8729647165351848  1.0000
  W   W13       1.0  0.2499759613097402  0.7528484982740247  0.001965919604404561  1.0000
  Mo  Mo33      1.0  0.37571554190368894  0.8755663226185306  0.12449731244359537  1.0000
  W   W14       1.0  0.25227675912413394  0.7447578049649933  0.24985887267959836  1.0000
  Nb  Nb13      1.0  0.37337935548888634  0.8775508380226551  0.3749098873238532  1.0000
  W   W15       1.0  0.2548518528345311  0.7460970676272956  0.499190614356371  1.0000
  W   W16       1.0  0.37362744316498836  0.8729051338749038  0.6257628768569221  1.0000
  Mo  Mo34      1.0  0.2523149719895247  0.7494853194317208  0.7485254462038754  1.0000
  Nb  Nb14      1.0  0.37501339311495246  0.8771272881753466  0.8716650204459677  1.0000
  Mo  Mo35      1.0  0.49844227848458317  0.0015450995159245226  0.0008097287438692296  1.0000
  Mo  Mo36      1.0  0.6242679781739426  0.12779110244666156  0.12611431267040366  1.0000
  Mo  Mo37      1.0  0.5002165858865106  0.004720104734289035  0.24777318471533058  1.0000
  Mo  Mo38      1.0  0.6249622465294715  0.1235939598683638  0.37535706920544376  1.0000
  Nb  Nb15      1.0  0.49984039941374414  0.0013214295477449608  0.5005703821715077  1.0000
  Nb  Nb16      1.0  0.6258794396937375  0.1261458717891124  0.6277233450243265  1.0000
  Mo  Mo39      1.0  0.5008983678972077  0.9991252069063291  0.750574262696584  1.0000
  W   W17       1.0  0.6215950612461822  0.1244509280778084  0.8778439713112678  1.0000
  Mo  Mo40      1.0  0.5011222159324047  0.24861211754987064  0.001122026499743147  1.0000
  W   W18       1.0  0.6254715492675773  0.375527181363221  0.11791684674026871  1.0000
  Mo  Mo41      1.0  0.5033967287221414  0.25952380135981024  0.26081689677553055  1.0000
  Mo  Mo42      1.0  0.5542537198727031  0.44500433052573535  0.44903837982804684  1.0000
  W   W19       1.0  0.4992724044000171  0.24591587890043448  0.4999226152785039  1.0000
  W   W20       1.0  0.6248206268988964  0.37506537676341634  0.6323522944406117  1.0000
  Mo  Mo43      1.0  0.4973890077135431  0.25092152048801175  0.7500601288199377  1.0000
  W   W21       1.0  0.6236898619859674  0.37368009476758124  0.8768118539053291  1.0000
  Mo  Mo44      1.0  0.5003464999921294  0.4996532608842279  0.9960938624131492  1.0000
  Nb  Nb17      1.0  0.6275765043861199  0.6247491542486096  0.12172145191746972  1.0000
  Nb  Nb18      1.0  0.5021161045212374  0.49682753256668477  0.25064570833720223  1.0000
  Mo  Mo45      1.0  0.6251176427759513  0.6288133816913564  0.37392465032420114  1.0000
  Mo  Mo46      1.0  0.6223054151276961  0.6157640808866373  0.6171711567989377  1.0000
  W   W22       1.0  0.4996229722362545  0.4985690117863987  0.748635200593428  1.0000
  Nb  Nb19      1.0  0.6290585392439225  0.6238070953972279  0.8713954439838025  1.0000
  Mo  Mo47      1.0  0.49966150764455797  0.7505814052130911  0.9970504139946017  1.0000
  W   W23       1.0  0.6238200978640208  0.8789851229085455  0.12272602240884622  1.0000
  Nb  Nb20      1.0  0.49769276144417485  0.7510129026957256  0.2501019605763233  1.0000
  Mo  Mo48      1.0  0.6229845779758248  0.8771824731489148  0.3730041194630162  1.0000
  Mo  Mo49      1.0  0.4979734460637633  0.7508582952889902  0.5002835610737828  1.0000
  Mo  Mo50      1.0  0.6236130412077122  0.8732272317582881  0.6256293971260003  1.0000
  W   W24       1.0  0.5016820707094278  0.7462223130240659  0.7431677614903172  1.0000
  Nb  Nb21      1.0  0.6257481333152021  0.8761968202850343  0.8769878294748239  1.0000
  Mo  Mo51      1.0  0.7499224194411057  0.0025133409646529922  0.0003327871586373892  1.0000
  W   W25       1.0  0.8737521161041916  0.12776689925133267  0.1268161802138805  1.0000
  Mo  Mo52      1.0  0.7483733189029405  0.0020627750002946755  0.2489481416813648  1.0000
  W   W26       1.0  0.8709064379337945  0.12781366186928345  0.37661229511100314  1.0000
  Mo  Mo53      1.0  0.7519565732483359  0.004270803001409858  0.5020381407198026  1.0000
  W   W27       1.0  0.8744356997457935  0.12468782929760802  0.6228730756408699  1.0000
  W   W28       1.0  0.751584186796177  0.997589064798714  0.750866438810524  1.0000
  Nb  Nb22      1.0  0.8792727217158489  0.12249891752394246  0.8770429652227913  1.0000
  W   W29       1.0  0.7499989025012999  0.24914138245646894  0.0023594435718966677  1.0000
  W   W30       1.0  0.8740354619034645  0.377414645386415  0.12649144859905836  1.0000
  Nb  Nb23      1.0  0.7425355830605835  0.25676722386762557  0.255788093131076  1.0000
  Mo  Mo54      1.0  0.8786800604500042  0.3756091500257194  0.3737740938365485  1.0000
  W   W31       1.0  0.7378702261435244  0.26090198877378423  0.49392168229824623  1.0000
  Nb  Nb24      1.0  0.8732538403397666  0.37521703911927873  0.6267146327407637  1.0000
  Nb  Nb25      1.0  0.75039819731676  0.24828544134220248  0.7541300589259414  1.0000
  W   W32       1.0  0.8761848271982084  0.3767645178719864  0.87844460252378  1.0000
  Mo  Mo55      1.0  0.7516030468499989  0.4985084945389314  0.001084804318537535  1.0000
  W   W33       1.0  0.875976448551645  0.6227255359053501  0.12468665253639402  1.0000
  Mo  Mo56      1.0  0.7433129721807992  0.4965957436169718  0.2569540929338323  1.0000
  Mo  Mo57      1.0  0.8748399892506757  0.6238509678767148  0.3748105789655129  1.0000
  W   W34       1.0  0.7542725883826376  0.49890528579448506  0.4969782432572363  1.0000
  W   W35       1.0  0.873754517096133  0.6254429097741083  0.6282359867751307  1.0000
  Mo  Mo58      1.0  0.7502886935946773  0.5009181549697631  0.7499937945511392  1.0000
  Mo  Mo59      1.0  0.8763566324875783  0.6242999779711357  0.8756060727873012  1.0000
  Mo  Mo60      1.0  0.7512060955349331  0.7507981162666688  0.0004237714752924396  1.0000
  Mo  Mo61      1.0  0.8726204163133027  0.8764393293236654  0.12303364458900012  1.0000
  Nb  Nb26      1.0  0.7514464449401979  0.75053914666396  0.24816983542602614  1.0000
  Nb  Nb27      1.0  0.8717843951964727  0.8780342809918542  0.3777390460218615  1.0000
  Nb  Nb28      1.0  0.7444588611856372  0.7485842228860878  0.5030580701822605  1.0000
  W   W36       1.0  0.8741563391116253  0.8754321045651342  0.6285143213631793  1.0000
  Mo  Mo62      1.0  0.7493782494393146  0.7497278159684985  0.749439971389258  1.0000
  Mo  Mo63      1.0  0.8763721943873576  0.8732670933052156  0.874443019098815  1.0000
