data_image0
_chemical_formula_structural       MoWMo2W5MoW3TaMo2W5Mo3W2MoWMoWMoW3Mo3NbWMoWMoW2MoW2MoW4MoWMo2WMoTaW4MoW6MoW2Mo3W3MoWMoW9MoWMo3WMoW4MoWTaMo2W2Mo2W3TaWMoWMoWMo2WMoWMoW
_chemical_formula_sum              "Mo46 W76 Ta4 Nb1"
_cell_length_a       12.8
_cell_length_b       12.8
_cell_length_c       12.8
_cell_angle_alpha    90.0
_cell_angle_beta     90.0
_cell_angle_gamma    90.0

_space_group_name_H-M_alt    "P 1"
_space_group_IT_number       1

loop_
  _space_group_symop_operation_xyz
  'x, y, z'

loop_
  _atom_site_type_symbol
  _atom_site_label
  _atom_site_symmetry_multiplicity
  _atom_site_fract_x
  _atom_site_fract_y
  _atom_site_fract_z
  _atom_site_occupancy
  Mo  Mo1       1.0  0.00036117960855845427  0.9996173241482263  0.9995427158564829  1.0000
  W   W1        1.0  0.124662745699642  0.1247499719182625  0.12467557292805874  1.0000
  Mo  Mo2       1.0  0.9997268248894767  0.00045205326903404336  0.2508367185265331  1.0000
  Mo  Mo3       1.0  0.12412196949629513  0.12574021191032408  0.37454338593973735  1.0000
  W   W2        1.0  0.9994322873329928  0.00019908608731291025  0.4999570035841794  1.0000
  W   W3        1.0  0.12373450847849427  0.12394338982395407  0.6254753297628903  1.0000
  W   W4        1.0  0.9991515926750245  0.9999764986738454  0.7497633680090989  1.0000
  W   W5        1.0  0.12477309853112066  0.12513305011184425  0.8753865959876567  1.0000
  W   W6        1.0  0.000981906322584515  0.24909200598453474  0.9987951095339413  1.0000
  Mo  Mo4       1.0  0.12579335531276253  0.374769611999062  0.12512496570568607  1.0000
  W   W7        1.0  0.0019184388350055356  0.24858363997626642  0.25118216745132044  1.0000
  W   W8        1.0  0.12536364624718907  0.37528434980385056  0.3740816031788141  1.0000
  W   W9        1.0  0.9983074681904249  0.24852882021750053  0.4981061847290907  1.0000
  Ta  Ta1       1.0  0.12581159221751378  0.3758801414913168  0.6260241626609307  1.0000
  Mo  Mo5       1.0  0.0003602083133833603  0.2485220011068548  0.7497281357010934  1.0000
  Mo  Mo6       1.0  0.1250655857283376  0.3743349216827582  0.8765191131128547  1.0000
  W   W10       1.0  0.0008614743132354757  0.5012432836402789  0.9978546641706615  1.0000
  W   W11       1.0  0.12338767653486746  0.6238101076201156  0.12383454237913748  1.0000
  W   W12       1.0  0.0023945380548326916  0.4995862435731263  0.2501977927190621  1.0000
  W   W13       1.0  0.1250754154606359  0.6237025871861348  0.3760487300372859  1.0000
  W   W14       1.0  0.9984933754125638  0.5003344794973806  0.5002683160495364  1.0000
  Mo  Mo7       1.0  0.12559497286506216  0.6265978561611601  0.6249510836154862  1.0000
  Mo  Mo8       1.0  0.9980638642282937  0.5004856281544272  0.7498389733198657  1.0000
  Mo  Mo9       1.0  0.12517545206913772  0.6255314263692904  0.8762338667738963  1.0000
  W   W15       1.0  0.9996358878303522  0.7498107513125524  0.9996769642200916  1.0000
  W   W16       1.0  0.12358993341640395  0.876974635516077  0.12354844594133364  1.0000
  Mo  Mo10      1.0  0.9999960101843474  0.7504099706892076  0.2488763554931847  1.0000
  W   W17       1.0  0.12320379277311924  0.8762569733759025  0.3761413487116428  1.0000
  Mo  Mo11      1.0  0.001245493905665452  0.7512343541110862  0.500198366538055  1.0000
  W   W18       1.0  0.12494699367205757  0.874832100771778  0.6255483398573285  1.0000
  Mo  Mo12      1.0  0.0002070081278364582  0.7516095682332157  0.7508071228651009  1.0000
  W   W19       1.0  0.12412503527533328  0.8749548261134932  0.874728694439012  1.0000
  W   W20       1.0  0.25082614783847046  0.9994182669387686  0.9998332793817521  1.0000
  W   W21       1.0  0.3752937347421442  0.12550346930836406  0.12508173563633396  1.0000
  Mo  Mo13      1.0  0.25033022581647424  0.0009960690417813714  0.24925530271557003  1.0000
  Mo  Mo14      1.0  0.37598597661914923  0.1255647208011137  0.37279652952472453  1.0000
  Mo  Mo15      1.0  0.24930164507237199  0.9975454995327343  0.5005074890431864  1.0000
  Nb  Nb1       1.0  0.37470339400507197  0.12474877303250835  0.6246414173677795  1.0000
  W   W22       1.0  0.24917022063931737  0.9983228864754907  0.7517037953784657  1.0000
  Mo  Mo16      1.0  0.37487178458608605  0.12546550793792682  0.8773414380657502  1.0000
  W   W23       1.0  0.25025122516154974  0.25057962626852204  1.6060880810169856e-05  1.0000
  Mo  Mo17      1.0  0.374762595477755  0.37490691778262786  0.12530908394345514  1.0000
  W   W24       1.0  0.24977227828638424  0.2500090471598505  0.24923601847814175  1.0000
  W   W25       1.0  0.37563197266726367  0.3758936370324634  0.3761877862610219  1.0000
  Mo  Mo18      1.0  0.24985284203716898  0.25044133969650917  0.4994047070039982  1.0000
  W   W26       1.0  0.37686761385420436  0.3781775257092615  0.6247515760164192  1.0000
  W   W27       1.0  0.2506985052410404  0.2496183021016933  0.753778106965195  1.0000
  Mo  Mo19      1.0  0.3759718466069916  0.3760797645402475  0.8739540214204916  1.0000
  W   W28       1.0  0.25024708217793423  0.49997871541944294  0.9996332073353056  1.0000
  W   W29       1.0  0.3764396756347921  0.6233694153802858  0.12329995209884316  1.0000
  W   W30       1.0  0.2505988588569853  0.4980916876919869  0.24953991334286113  1.0000
  W   W31       1.0  0.3777430458900586  0.623505947143249  0.3776598949288623  1.0000
  Mo  Mo20      1.0  0.25092099259038536  0.5016163942726157  0.49885080530526316  1.0000
  W   W32       1.0  0.3746306495578419  0.6245867290843632  0.6255787916417879  1.0000
  Mo  Mo21      1.0  0.2519350281832427  0.5009440937517162  0.7505307855333408  1.0000
  Mo  Mo22      1.0  0.3768725401950629  0.6246607772677982  0.8746072797087041  1.0000
  W   W33       1.0  0.2502992808672415  0.7500864156694098  0.9974926122744969  1.0000
  Mo  Mo23      1.0  0.3756601369304066  0.875403995744692  0.12475458302317284  1.0000
  Ta  Ta2       1.0  0.2513681028582986  0.7506874117819938  0.24863201625492562  1.0000
  W   W34       1.0  0.3768975334545899  0.8753388266834611  0.3776344058065831  1.0000
  W   W35       1.0  0.24997630501514267  0.7501691203355937  0.5017306606989523  1.0000
  W   W36       1.0  0.37663657684848667  0.8718132773715666  0.6251135937908358  1.0000
  W   W37       1.0  0.2500576768367196  0.7497668450769958  0.7507682627989711  1.0000
  Mo  Mo24      1.0  0.37479633729241646  0.8739675681866428  0.8739943710698196  1.0000
  W   W38       1.0  0.5001340321812485  0.9992693290299852  0.999917673826826  1.0000
  W   W39       1.0  0.6254772497905609  0.12505651520764802  0.12487328534463035  1.0000
  W   W40       1.0  0.4997396298467738  0.9994956965138916  0.24997291630070975  1.0000
  W   W41       1.0  0.6254071328596339  0.12537586967049622  0.37383490214240916  1.0000
  W   W42       1.0  0.5014873827251657  0.9991464446032753  0.4980009909394234  1.0000
  W   W43       1.0  0.6264804014861665  0.12532496781419541  0.6259262527294639  1.0000
  Mo  Mo25      1.0  0.5011697839226585  0.9997382554877641  0.7498081636022125  1.0000
  W   W44       1.0  0.6249463444257074  0.12483225733887583  0.8754110690013139  1.0000
  W   W45       1.0  0.4999190935860762  0.2504596998732285  0.9996796218660804  1.0000
  Mo  Mo26      1.0  0.6242137760862185  0.37477234623676586  0.1241949449263665  1.0000
  Mo  Mo27      1.0  0.49919246964556846  0.249359093009941  0.25001561631515007  1.0000
  Mo  Mo28      1.0  0.6244778472262511  0.37665824635326817  0.3769721298529211  1.0000
  W   W46       1.0  0.5014007594889782  0.25121637440900296  0.4982650094587107  1.0000
  W   W47       1.0  0.6252200256565842  0.37402006121898196  0.6259221068303518  1.0000
  W   W48       1.0  0.500411288788841  0.2518929384812979  0.7519562500930087  1.0000
  Mo  Mo29      1.0  0.6249363853419996  0.37642670901617226  0.8734451822349945  1.0000
  W   W49       1.0  0.5000379121424993  0.49957924998339265  0.999311235691335  1.0000
  Mo  Mo30      1.0  0.6249243581298551  0.6251952758742517  0.12423695504421024  1.0000
  W   W50       1.0  0.4999900440821406  0.49962048171031254  0.25017687645351483  1.0000
  W   W51       1.0  0.6240552133646169  0.6259666004539265  0.37435850418852357  1.0000
  W   W52       1.0  0.5034912076677207  0.5018650595256808  0.5019886505560014  1.0000
  W   W53       1.0  0.5028563073764094  0.5018359680743172  0.7485913678492346  1.0000
  W   W54       1.0  0.6249950382504331  0.6256426062537417  0.8749047433053221  1.0000
  W   W55       1.0  0.4997834023547376  0.7507751724304573  0.9998081562153324  1.0000
  W   W56       1.0  0.6255648337903408  0.8756497226249288  0.12469996346683457  1.0000
  W   W57       1.0  0.5011038290736143  0.7504371008252388  0.2495352833721748  1.0000
  W   W58       1.0  0.62578659496771  0.8729024765302117  0.3762802777850541  1.0000
  Mo  Mo31      1.0  0.501026437705989  0.7479889901273447  0.5013449857043975  1.0000
  W   W59       1.0  0.6244592994418001  0.8748313157651434  0.6258988275226686  1.0000
  Mo  Mo32      1.0  0.5013257696900818  0.746774675872074  0.7478854633430144  1.0000
  Mo  Mo33      1.0  0.6256241306730014  0.8736979608457587  0.8746520798516744  1.0000
  Mo  Mo34      1.0  0.7492254144375838  0.9998376579013392  0.9993974374260831  1.0000
  W   W60       1.0  0.8745247549243518  0.12356126201197568  0.1250818114554435  1.0000
  Mo  Mo35      1.0  0.7491276766936885  0.9997043115378396  0.25092207562626484  1.0000
  W   W61       1.0  0.874581468338292  0.12502137361533025  0.37374662092160316  1.0000
  W   W62       1.0  0.7504404711468526  7.603041117595365e-05  0.500338658377733  1.0000
  W   W63       1.0  0.8747146549676826  0.12606469744277998  0.625672317610657  1.0000
  W   W64       1.0  0.7506186609207149  0.9991745639829409  0.7504249144072422  1.0000
  Mo  Mo36      1.0  0.8749240192918062  0.12483376348931534  0.8753507454871511  1.0000
  W   W65       1.0  0.7488796904385697  0.24905263476333844  0.9978583188772363  1.0000
  Ta  Ta3       1.0  0.8744953560447573  0.3738706889367291  0.12590512169052306  1.0000
  Mo  Mo37      1.0  0.7505057251716292  0.2491347783685023  0.25007494839071964  1.0000
  Mo  Mo38      1.0  0.8750345561808853  0.37491634330873713  0.37757428363489454  1.0000
  W   W66       1.0  0.7501079159460355  0.2503107559542844  0.4994729014862057  1.0000
  W   W67       1.0  0.8727715595430175  0.37604300465811924  0.6259758355830969  1.0000
  Mo  Mo39      1.0  0.7493668360391424  0.2498643479178853  0.7497583476205288  1.0000
  Mo  Mo40      1.0  0.8739968078034439  0.3764906752167741  0.8732526558583663  1.0000
  W   W68       1.0  0.7487505497772585  0.5012109246239147  0.9973868810583063  1.0000
  W   W69       1.0  0.8745786835731384  0.6259688666578314  0.12355925503999377  1.0000
  W   W70       1.0  0.7467740087964174  0.4998589847968271  0.2507861028295545  1.0000
  Ta  Ta4       1.0  0.8736970770714965  0.6289270039858003  0.3756656476858503  1.0000
  W   W71       1.0  0.7468923139800843  0.5002096554820267  0.5038799070969671  1.0000
  Mo  Mo41      1.0  0.8743155870935931  0.6237160086979966  0.6262435107859898  1.0000
  W   W72       1.0  0.7479191442883177  0.5025379772877617  0.748358973907337  1.0000
  Mo  Mo42      1.0  0.8730293077372253  0.6251860364546878  0.8754629818754569  1.0000
  W   W73       1.0  0.7503385777999838  0.7505273747650565  0.9993514512433688  1.0000
  Mo  Mo43      1.0  0.8748103650028406  0.8745624262003854  0.12428695328069903  1.0000
  Mo  Mo44      1.0  0.748769665471884  0.7502726415944315  0.2488368358481037  1.0000
  W   W74       1.0  0.8739527964728611  0.8752651548407604  0.37568239930485803  1.0000
  Mo  Mo45      1.0  0.7472240828098378  0.7491380574608218  0.502715432235259  1.0000
  W   W75       1.0  0.8738995591852144  0.8723359008168002  0.6252373052012674  1.0000
  Mo  Mo46      1.0  0.7481623873063158  0.7485742939720829  0.7490208756474872  1.0000
  W   W76       1.0  0.8739971793858292  0.8735038948146617  0.8737337833670813  1.0000
