data_image0
_chemical_formula_structural       WMoWMo8WMo3TaMoW3MoWMoW7MoWMo2W2Mo2W2Mo2W2Mo4WMoWMoWMo3W3MoWMo2W4Mo2TaW2MoWMo2W5MoW3MoW2Mo3WMoWMo3W5MoWMo4W2MoWMoTaWMoWMoW2MoWTaWMoTa2
_chemical_formula_sum              "W62 Mo59 Ta6"
_cell_length_a       12.8
_cell_length_b       12.8
_cell_length_c       12.8
_cell_angle_alpha    90.0
_cell_angle_beta     90.0
_cell_angle_gamma    90.0

_space_group_name_H-M_alt    "P 1"
_space_group_IT_number       1

loop_
  _space_group_symop_operation_xyz
  'x, y, z'

loop_
  _atom_site_type_symbol
  _atom_site_label
  _atom_site_symmetry_multiplicity
  _atom_site_fract_x
  _atom_site_fract_y
  _atom_site_fract_z
  _atom_site_occupancy
  W   W1        1.0  0.0013701599347383524  0.0021739312319737853  0.001470581227021292  1.0000
  Mo  Mo1       1.0  0.12483348561573196  0.12466061364787076  0.12515504578319045  1.0000
  W   W2        1.0  0.001513886192720139  0.0024969572923179283  0.2481881186831475  1.0000
  Mo  Mo2       1.0  0.12551035434720076  0.1252135120560881  0.3742529677632664  1.0000
  Mo  Mo3       1.0  0.0001704491347410039  0.0003247857619207881  0.49969996413437445  1.0000
  Mo  Mo4       1.0  0.12485510411572275  0.1245070911409344  0.6252973120534406  1.0000
  Mo  Mo5       1.0  0.0013571511658476507  0.0008327624057743636  0.750122414649686  1.0000
  Mo  Mo6       1.0  0.12579423229823478  0.12341008790881049  0.8752300134691727  1.0000
  Mo  Mo7       1.0  0.9988354088114574  0.2490015670894016  0.00012381769170512089  1.0000
  Mo  Mo8       1.0  0.12559562587790954  0.37577369157930246  0.12677482188020456  1.0000
  Mo  Mo9       1.0  0.0007818139806548353  0.250122059163543  0.250908673925624  1.0000
  W   W3        1.0  0.12588853966599742  0.3738557340388549  0.3752083281495611  1.0000
  Mo  Mo10      1.0  0.9999367888879286  0.25048349879266507  0.5002057699082773  1.0000
  Mo  Mo11      1.0  0.12526870068936147  0.37573423922506594  0.6231504259626707  1.0000
  Mo  Mo12      1.0  0.9988250716243804  0.24979021918807523  0.7487265976032003  1.0000
  Ta  Ta1       1.0  0.12440396908491129  0.3740090499150301  0.873841617515213  1.0000
  Mo  Mo13      1.0  8.553610684742849e-05  0.5011017516129955  0.0004292643562642015  1.0000
  W   W4        1.0  0.12505618178182765  0.6246348507683557  0.12466221972167923  1.0000
  W   W5        1.0  0.0011473199751745706  0.4985341445734686  0.25013563041395565  1.0000
  W   W6        1.0  0.12498717188864308  0.6248220405867193  0.37525003729317447  1.0000
  Mo  Mo14      1.0  0.000686975741936019  0.5003731994889258  0.49965023321274404  1.0000
  W   W7        1.0  0.1254062365634679  0.6246941517727409  0.6260782490989127  1.0000
  Mo  Mo15      1.0  0.9996242595423618  0.5000013053188  0.7490596737436979  1.0000
  W   W8        1.0  0.12518406561689624  0.6257291689842558  0.874165895249366  1.0000
  W   W9        1.0  0.0007497159494534621  0.7491127494334914  0.0012705767713216138  1.0000
  W   W10       1.0  0.12559403755317378  0.8750751473932845  0.12482886943008108  1.0000
  W   W11       1.0  0.0008989524378964862  0.748798581760022  0.2485834446486941  1.0000
  W   W12       1.0  0.12680192255831166  0.8754545887978514  0.37526984531868307  1.0000
  W   W13       1.0  0.001450510760204257  0.7484532225292839  0.5016472595660928  1.0000
  W   W14       1.0  0.12539186446443884  0.8751126400899366  0.6252094415538713  1.0000
  Mo  Mo16      1.0  0.0014823198096889465  0.7494563345110351  0.7497936267252097  1.0000
  W   W15       1.0  0.1269308856417089  0.87508873955793  0.8745405484723792  1.0000
  Mo  Mo17      1.0  0.2502409403425489  0.9990689916314116  0.9996530894858496  1.0000
  Mo  Mo18      1.0  0.3758536005034471  0.12408071950296654  0.12566539737398208  1.0000
  W   W16       1.0  0.2501350527849417  0.0013227545174600034  0.2499942911974201  1.0000
  W   W17       1.0  0.3747722067955958  0.1259475614961626  0.3757483802361945  1.0000
  Mo  Mo19      1.0  0.24941763204590783  0.9996516371144495  0.5001272855270713  1.0000
  Mo  Mo20      1.0  0.37453284582972535  0.12522481539018854  0.6252794813295138  1.0000
  W   W18       1.0  0.24986744984744777  0.0012143958346245533  0.7492261450024295  1.0000
  W   W19       1.0  0.3743356536473285  0.1257075694914216  0.8752208442255573  1.0000
  Mo  Mo21      1.0  0.25052970964615506  0.2503230148485686  0.0006331324814480514  1.0000
  Mo  Mo22      1.0  0.37516988653184563  0.3750420399670138  0.12632375954441133  1.0000
  W   W20       1.0  0.2504697244081707  0.2505874151081814  0.2508694152767607  1.0000
  W   W21       1.0  0.37592959036409274  0.3753412222427261  0.3770866428759781  1.0000
  Mo  Mo23      1.0  0.2514623057054078  0.2519822655953953  0.4989079835559204  1.0000
  Mo  Mo24      1.0  0.37795580789121186  0.3765142138407112  0.6216734932071182  1.0000
  Mo  Mo25      1.0  0.2514840194325649  0.24923507690242877  0.7487185966099754  1.0000
  Mo  Mo26      1.0  0.3762736726695482  0.3743855871353289  0.8749793742881907  1.0000
  W   W22       1.0  0.25240973974434733  0.5007963665206356  0.0014796420297038572  1.0000
  Mo  Mo27      1.0  0.37433818294101523  0.625768613437532  0.12533403113472577  1.0000
  W   W23       1.0  0.25177332211778564  0.49941095469418856  0.2509055846044538  1.0000
  Mo  Mo28      1.0  0.3770265330260343  0.6217284836870094  0.3773933717873573  1.0000
  W   W24       1.0  0.2502791636759763  0.4998986947915127  0.5004336922360038  1.0000
  Mo  Mo29      1.0  0.3771946407846858  0.6234194787560114  0.6224206752903554  1.0000
  Mo  Mo30      1.0  0.25062567940615066  0.5003144183305321  0.7486044069850255  1.0000
  Mo  Mo31      1.0  0.37507284725373297  0.6255942834995264  0.87517614287273  1.0000
  W   W25       1.0  0.2506491347249211  0.749176094512986  0.9997341447046538  1.0000
  W   W26       1.0  0.3747829596080998  0.8752196508660188  0.12505351767516482  1.0000
  W   W27       1.0  0.25159033599190794  0.7490456111793387  0.25159154703137177  1.0000
  Mo  Mo32      1.0  0.3742996056715809  0.8756626396864027  0.37410875677725497  1.0000
  W   W28       1.0  0.25267446349051137  0.7481904963074575  0.5002811293270008  1.0000
  Mo  Mo33      1.0  0.3741670237423638  0.8751009623322399  0.6257844151264823  1.0000
  Mo  Mo34      1.0  0.250636781944888  0.7503933276842268  0.7491169341605369  1.0000
  W   W29       1.0  0.3740172804557431  0.87563789551323  0.875158611887511  1.0000
  W   W30       1.0  0.49964712642389936  0.999964522571957  0.0005181973829619515  1.0000
  W   W31       1.0  0.6251306480348716  0.12593653563433369  0.1250980870599882  1.0000
  W   W32       1.0  0.49994776886882225  0.0004374039800010651  0.2499571644524727  1.0000
  Mo  Mo35      1.0  0.624944195291053  0.1244318064865359  0.37317008025900106  1.0000
  Mo  Mo36      1.0  0.4995766898192625  4.5629797257015966e-05  0.4990428751207631  1.0000
  Ta  Ta2       1.0  0.6256290715245411  0.1267378366029623  0.6234869327523284  1.0000
  W   W33       1.0  0.49782623996997727  0.9987692050078051  0.7511204007535084  1.0000
  W   W34       1.0  0.6245891979622186  0.12535636888825352  0.8769684912604058  1.0000
  Mo  Mo37      1.0  0.5013174553298453  0.25000022654422627  0.9991400164948246  1.0000
  W   W35       1.0  0.6232592484894788  0.37218660878481497  0.12363363820492816  1.0000
  Mo  Mo38      1.0  0.49925524845049896  0.2507598910580967  0.25185318389297945  1.0000
  Mo  Mo39      1.0  0.6203851929605368  0.37758167933889974  0.37738516516518666  1.0000
  W   W36       1.0  0.49822158564380326  0.25138910840735  0.4991332403743849  1.0000
  W   W37       1.0  0.6239485785819909  0.3789458353095335  0.6239732256184809  1.0000
  W   W38       1.0  0.4979168804279621  0.25254088164661964  0.7491724217122804  1.0000
  W   W39       1.0  0.6243198325550807  0.3749620554247957  0.8742480601610031  1.0000
  W   W40       1.0  0.4992889576319057  0.5001192478577708  0.0004324869979404093  1.0000
  Mo  Mo40      1.0  0.6243747933350573  0.6244273224611889  0.12483380525995369  1.0000
  W   W41       1.0  0.4980870022691509  0.4997335233788311  0.2490502970817364  1.0000
  W   W42       1.0  0.6221065941901055  0.6249496209267522  0.37896524584887736  1.0000
  W   W43       1.0  0.6217844016034555  0.6198072861635893  0.6216775424961405  1.0000
  Mo  Mo41      1.0  0.500642204769301  0.4997080732843815  0.7502922221420188  1.0000
  W   W44       1.0  0.623877366795875  0.6228503093510414  0.8750288890145659  1.0000
  W   W45       1.0  0.500142883669858  0.7495407290370231  0.9996307392706671  1.0000
  Mo  Mo42      1.0  0.6240769514186111  0.8757368659237236  0.1253151361516133  1.0000
  Mo  Mo43      1.0  0.4999045639926237  0.7490325526692909  0.25138217669857416  1.0000
  Mo  Mo44      1.0  0.6241348453471732  0.8740206206754897  0.3746325692537623  1.0000
  W   W46       1.0  0.4990402667608446  0.750595705264958  0.5005803787914781  1.0000
  Mo  Mo45      1.0  0.624042092553586  0.8734605111093396  0.6243953797584572  1.0000
  W   W47       1.0  0.4978498399933926  0.7489174155677181  0.7482178739287353  1.0000
  Mo  Mo46      1.0  0.6224994301115095  0.8751982083686327  0.8755197573823698  1.0000
  Mo  Mo47      1.0  0.7493512762918098  0.0013123993550807898  0.000530828497038407  1.0000
  Mo  Mo48      1.0  0.8741914812789847  0.12465018962732886  0.12595768577092648  1.0000
  W   W48       1.0  0.7482364176611704  0.0015523147656436702  0.24878976967031077  1.0000
  W   W49       1.0  0.8751421756161432  0.12726616896858597  0.3754993407734875  1.0000
  W   W50       1.0  0.7496591604759828  0.9997185373936149  0.49930984704663317  1.0000
  W   W51       1.0  0.8769901029174305  0.125822010604144  0.6243253139434971  1.0000
  W   W52       1.0  0.7501503478576932  0.0017808071941505528  0.7500579891014247  1.0000
  Mo  Mo49      1.0  0.8742242066348445  0.12592399576063157  0.8744752096337854  1.0000
  W   W53       1.0  0.7510666451288428  0.25082579894804924  0.9999072671086988  1.0000
  Mo  Mo50      1.0  0.8748150857219327  0.3739491532580174  0.12424356554782079  1.0000
  Mo  Mo51      1.0  0.7492784414879452  0.2489992015841709  0.24999199199772712  1.0000
  Mo  Mo52      1.0  0.8765677244054066  0.3743154450076669  0.37581680198590295  1.0000
  Mo  Mo53      1.0  0.7493001892051212  0.2513572292235251  0.5008628755955912  1.0000
  W   W54       1.0  0.8746684126642423  0.3740896778375621  0.624803466369317  1.0000
  W   W55       1.0  0.7506854344672792  0.2523635797617001  0.7506811127933568  1.0000
  Mo  Mo54      1.0  0.8730877183259046  0.374928071617271  0.8746643501251812  1.0000
  W   W56       1.0  0.7501229133426818  0.49949737455566684  0.9989761997262637  1.0000
  Mo  Mo55      1.0  0.8757785982471978  0.6256734604947645  0.12498129470392581  1.0000
  Ta  Ta3       1.0  0.7498642860223366  0.498580741620239  0.24941301197193927  1.0000
  W   W57       1.0  0.8755960287289154  0.6245039415115814  0.37672393775798263  1.0000
  Mo  Mo56      1.0  0.7499169801830509  0.5007699970883459  0.5011864312740737  1.0000
  W   W58       1.0  0.8756589402111625  0.6225405055491516  0.6239098063323002  1.0000
  Mo  Mo57      1.0  0.7493432058304561  0.4983020402939634  0.7494460338159572  1.0000
  W   W59       1.0  0.8764434568393537  0.6221079555946825  0.8754047960125367  1.0000
  W   W60       1.0  0.7487271104473185  0.7483787397506219  0.0028826324717728985  1.0000
  Mo  Mo58      1.0  0.8757011059396008  0.8755031769961037  0.12529283736857516  1.0000
  W   W61       1.0  0.7476926226225371  0.7495834018435923  0.24956853986337  1.0000
  Ta  Ta4       1.0  0.8764765498600559  0.8763909220338169  0.3757020632036965  1.0000
  W   W62       1.0  0.7469605687421448  0.7478568761153176  0.4997683993164307  1.0000
  Mo  Mo59      1.0  0.8756390105466971  0.8761284796617763  0.6243028986734683  1.0000
  Ta  Ta5       1.0  0.746048760517444  0.7499040151335157  0.7469827216975488  1.0000
  Ta  Ta6       1.0  0.8784614003100284  0.8774605377969003  0.8760700988437197  1.0000
