data_image0
_chemical_formula_structural       MoW9NbMo3W4MoW3NbW5MoNbMoWMoW5TaWMo2W2MoW3Mo2WMoWMoW2MoW3NbWMo2WNbMoTaWMoWMo2NbMoW2MoWMo2W8Nb2W3TaW3MoW4MoW2TaW3TaMoTaW6MoWMoNbW4
_chemical_formula_sum              "Mo31 W81 Nb9 Ta6"
_cell_length_a       12.8
_cell_length_b       12.8
_cell_length_c       12.8
_cell_angle_alpha    90.0
_cell_angle_beta     90.0
_cell_angle_gamma    90.0

_space_group_name_H-M_alt    "P 1"
_space_group_IT_number       1

loop_
  _space_group_symop_operation_xyz
  'x, y, z'

loop_
  _atom_site_type_symbol
  _atom_site_label
  _atom_site_symmetry_multiplicity
  _atom_site_fract_x
  _atom_site_fract_y
  _atom_site_fract_z
  _atom_site_occupancy
  Mo  Mo1       1.0  0.9999660015004024  0.9997977265728  0.9997766801115168  1.0000
  W   W1        1.0  0.12646985170286482  0.1236912549789617  0.12337204860000221  1.0000
  W   W2        1.0  0.001927542235314869  0.0001550405794476378  0.24889931763797016  1.0000
  W   W3        1.0  0.12630192333307708  0.12469268297377607  0.3765541831166263  1.0000
  W   W4        1.0  0.0005451793595737121  0.0021930743571715863  0.5001213095490875  1.0000
  W   W5        1.0  0.12415523574634574  0.1273418783124737  0.623816467878897  1.0000
  W   W6        1.0  0.9986106107798665  0.0012804119020617107  0.7511240446028417  1.0000
  W   W7        1.0  0.1241902580123336  0.1260031878183396  0.876720418762218  1.0000
  W   W8        1.0  0.001981156968400269  0.24906143489246732  0.9994857479414069  1.0000
  W   W9        1.0  0.12590177275046527  0.37670976640054205  0.12377189385434467  1.0000
  Nb  Nb1       1.0  0.0023628325495194348  0.24818244273334333  0.2490206637170364  1.0000
  Mo  Mo2       1.0  0.12799277310168783  0.37609385295033715  0.37451772445135667  1.0000
  Mo  Mo3       1.0  0.999940780613455  0.24968193560619636  0.5024285207913564  1.0000
  Mo  Mo4       1.0  0.12593678784949552  0.3749305030553879  0.6252315631333452  1.0000
  W   W10       1.0  0.0017675720804647562  0.2478200152554172  0.7499381131475593  1.0000
  W   W11       1.0  0.12843995373561945  0.37437040236381197  0.876622518393777  1.0000
  W   W12       1.0  0.0027111626660608536  0.5004504885878726  0.000563251904325812  1.0000
  W   W13       1.0  0.12695389469221835  0.6247754798580716  0.12463230472085265  1.0000
  Mo  Mo5       1.0  0.0008969553805238053  0.5019097072239199  0.2493302906707595  1.0000
  W   W14       1.0  0.12335097796546061  0.6239181517700279  0.373683124934531  1.0000
  W   W15       1.0  0.00238692805769761  0.5008810166262758  0.5007187963609948  1.0000
  W   W16       1.0  0.12470938097596128  0.624540583028041  0.625328867873166  1.0000
  Nb  Nb2       1.0  0.0016730270887665153  0.4994262513336947  0.7489426598755617  1.0000
  W   W17       1.0  0.12659534237233913  0.6260190094107032  0.8765001856991034  1.0000
  W   W18       1.0  0.0014912996531349105  0.7506445002647646  0.9992341029214058  1.0000
  W   W19       1.0  0.1250607346770893  0.8749559606721165  0.12444551969340012  1.0000
  W   W20       1.0  0.0033865530608596837  0.7503900649298918  0.24878859956138077  1.0000
  W   W21       1.0  0.12538903511004112  0.8754144459915592  0.37277105194807325  1.0000
  Mo  Mo6       1.0  0.9989932810694245  0.7487509226457836  0.49959140086294773  1.0000
  Nb  Nb3       1.0  0.1225553003723879  0.8733958536569492  0.624977208352686  1.0000
  Mo  Mo7       1.0  0.9991189245369599  0.7508227071676332  0.7519118335230268  1.0000
  W   W22       1.0  0.12416159245984777  0.8737947027548683  0.8779560840466849  1.0000
  Mo  Mo8       1.0  0.25041561094739806  0.0003914805996194239  0.0017020570773129567  1.0000
  W   W23       1.0  0.37473899507150016  0.12660993418354954  0.12568370732988446  1.0000
  W   W24       1.0  0.2492514842859657  0.0004146109402151812  0.25005973719118857  1.0000
  W   W25       1.0  0.37518125849819317  0.1274903636333362  0.374733612725111  1.0000
  W   W26       1.0  0.25071605774116323  0.001996488062364117  0.49798008940707045  1.0000
  W   W27       1.0  0.37703367098523116  0.128119098791508  0.6230443068401713  1.0000
  Ta  Ta1       1.0  0.25170579134651866  0.001200156721762992  0.7511182465873917  1.0000
  W   W28       1.0  0.37594041711690446  0.1268943282847449  0.8764204726815439  1.0000
  Mo  Mo9       1.0  0.24939160276273672  0.2498867416895168  0.00019300365054221512  1.0000
  Mo  Mo10      1.0  0.37455730106727475  0.37471059668188783  0.1267792497246758  1.0000
  W   W29       1.0  0.25098107338988457  0.25043090083673514  0.24935236777207662  1.0000
  W   W30       1.0  0.37510633451665637  0.3737680343135507  0.37553141035972826  1.0000
  Mo  Mo11      1.0  0.2513446431792533  0.24982477435550046  0.49997105778751655  1.0000
  W   W31       1.0  0.3764033326613945  0.3743964277400461  0.6238223812927821  1.0000
  W   W32       1.0  0.25012233923184934  0.2517818533984079  0.7502135558597728  1.0000
  W   W33       1.0  0.37503701429975644  0.3752255136796291  0.8757087695961779  1.0000
  Mo  Mo12      1.0  0.2495233014778584  0.49986339288540993  0.999620885142771  1.0000
  Mo  Mo13      1.0  0.37532830194215383  0.6239295483040298  0.12471611174401735  1.0000
  W   W34       1.0  0.25144156199353807  0.499968650778761  0.24982864464542673  1.0000
  Mo  Mo14      1.0  0.3760047122488042  0.6215653503779026  0.375494494828782  1.0000
  W   W35       1.0  0.25019098585784766  0.49857686228416803  0.5002116867567321  1.0000
  Mo  Mo15      1.0  0.3768554729267857  0.6225049341941087  0.6254718201676207  1.0000
  W   W36       1.0  0.2517961870929216  0.49927802140611793  0.749483448682936  1.0000
  W   W37       1.0  0.37511188884005287  0.6243923030691969  0.8753963318929375  1.0000
  Mo  Mo16      1.0  0.24962715993046225  0.7500301953031784  0.0007677234810451646  1.0000
  W   W38       1.0  0.3740044131840439  0.8767554806760748  0.12341974842940875  1.0000
  W   W39       1.0  0.24922237019528906  0.749273900140518  0.24834546979208103  1.0000
  W   W40       1.0  0.3739857039755582  0.8779171108539535  0.37467397495928007  1.0000
  Nb  Nb4       1.0  0.2528741867672247  0.747384603957767  0.4983119819111969  1.0000
  W   W41       1.0  0.378559403813979  0.8749568160657295  0.6255458403481885  1.0000
  Mo  Mo17      1.0  0.25048744516746374  0.7477813266380305  0.7518957101549362  1.0000
  Mo  Mo18      1.0  0.3747876823648547  0.8747375554898118  0.8749944859311234  1.0000
  W   W42       1.0  0.49767337485223084  0.9993949829227462  0.9987439787908917  1.0000
  Nb  Nb5       1.0  0.6232401884028933  0.12531080624178634  0.12400763885358308  1.0000
  Mo  Mo19      1.0  0.4975601484639519  0.0002870685043369409  0.24844938081890586  1.0000
  Ta  Ta2       1.0  0.6224026181773554  0.1273536188041493  0.3742761188665988  1.0000
  W   W43       1.0  0.497313591974875  0.0004529498039621406  0.5034889260995744  1.0000
  Mo  Mo20      1.0  0.6251151741503362  0.12554072866988705  0.6247144758452792  1.0000
  W   W44       1.0  0.5003428684649962  0.001767561849607117  0.7498351996183984  1.0000
  Mo  Mo21      1.0  0.6249824967262521  0.12567782254890966  0.8734114683630861  1.0000
  Mo  Mo22      1.0  0.4977782554161028  0.24923486371810605  0.998219785161523  1.0000
  Nb  Nb6       1.0  0.6245866761720229  0.37666380439487723  0.12403508463738751  1.0000
  Mo  Mo23      1.0  0.5002917245255607  0.2544775361887998  0.25354814339990395  1.0000
  W   W45       1.0  0.5018379813208778  0.49749691230320364  0.4974982207360007  1.0000
  W   W46       1.0  0.501473503003883  0.254541280460983  0.5009073670993722  1.0000
  Mo  Mo24      1.0  0.6245748747866732  0.37560353308805555  0.6245784550923851  1.0000
  W   W47       1.0  0.5000959995295772  0.25027430767884906  0.749487151054721  1.0000
  Mo  Mo25      1.0  0.6228220335945349  0.37564503971233404  0.8729546613384048  1.0000
  Mo  Mo26      1.0  0.4986548403854246  0.5016582391878243  0.9993725290484755  1.0000
  W   W48       1.0  0.624729430359515  0.6238592850729916  0.12426910675243669  1.0000
  W   W49       1.0  0.4998921466097747  0.49773215526518566  0.25335363947357387  1.0000
  W   W50       1.0  0.6264749303175504  0.6230644751104994  0.3750480539474888  1.0000
  W   W51       1.0  0.6248820117256239  0.623973456865548  0.6244297785785727  1.0000
  W   W52       1.0  0.49944106603990956  0.4992549054904133  0.7498236071234615  1.0000
  W   W53       1.0  0.6248880815480167  0.6230666538862404  0.8755301141646932  1.0000
  W   W54       1.0  0.49773414526602944  0.7491349291166588  0.9994282759681468  1.0000
  W   W55       1.0  0.626025649605869  0.8741873126502444  0.12461726525057852  1.0000
  Nb  Nb7       1.0  0.4959674527006133  0.7459544672761308  0.24876295870236448  1.0000
  Nb  Nb8       1.0  0.6238627598586978  0.8742739867456206  0.37472618743704533  1.0000
  W   W56       1.0  0.49944703459185724  0.7477205175132816  0.5026074046955676  1.0000
  W   W57       1.0  0.6252884976925139  0.8751044040856405  0.6248136191303437  1.0000
  W   W58       1.0  0.49848482953680107  0.7485048722573302  0.749787083816287  1.0000
  Ta  Ta3       1.0  0.6260283104588139  0.8732242350472741  0.8754715723894857  1.0000
  W   W59       1.0  0.751400198823351  0.00030293057684373107  0.9994374230517201  1.0000
  W   W60       1.0  0.8742729190881199  0.1251805013996392  0.12418781779660805  1.0000
  W   W61       1.0  0.7532822146619422  0.0014770191536386498  0.24789771645591874  1.0000
  Mo  Mo27      1.0  0.8742670603163223  0.12572048962299986  0.37594259870906566  1.0000
  W   W62       1.0  0.7511472926654156  0.001569967860301481  0.5033047704785633  1.0000
  W   W63       1.0  0.8737901369685019  0.12659635503523417  0.6243053389596397  1.0000
  W   W64       1.0  0.7508230278881562  0.0017274349206672503  0.7492087537110539  1.0000
  W   W65       1.0  0.8745860250529831  0.12352771183789094  0.8745799102100296  1.0000
  Mo  Mo28      1.0  0.7520528049626206  0.24850349623541088  3.567885210410769e-05  1.0000
  W   W66       1.0  0.873602071076371  0.3744832917800444  0.12557649883922675  1.0000
  W   W67       1.0  0.7491762613314192  0.2526057579616071  0.25225514529350834  1.0000
  Ta  Ta4       1.0  0.8750597088841928  0.37659122656798133  0.3756001061803848  1.0000
  W   W68       1.0  0.7464877126837967  0.2525919856063331  0.5007789129820504  1.0000
  W   W69       1.0  0.8726447044823505  0.37336641366004975  0.6227596687783921  1.0000
  W   W70       1.0  0.7478747468435971  0.2491213427562733  0.7482603474004833  1.0000
  Ta  Ta5       1.0  0.8725811925386223  0.37388377367824055  0.8770850280426324  1.0000
  Mo  Mo29      1.0  0.7506901182075933  0.5010535712556974  0.9997724715359755  1.0000
  Ta  Ta6       1.0  0.8727073601373553  0.6240483865297115  0.1258793048718246  1.0000
  W   W71       1.0  0.7444363478685418  0.4972484652394399  0.25437326034322266  1.0000
  W   W72       1.0  0.8739642039603718  0.6234100585254141  0.3764727616945446  1.0000
  W   W73       1.0  0.7456765055641107  0.49817760740522915  0.4994147131986742  1.0000
  W   W74       1.0  0.8734556832305812  0.6248310427673563  0.6233314381285819  1.0000
  W   W75       1.0  0.7470248248949917  0.5004340652954182  0.7481536071034623  1.0000
  W   W76       1.0  0.873584768408952  0.6275996940872274  0.8739723440322754  1.0000
  Mo  Mo30      1.0  0.7501001504579362  0.7507687913009758  0.9990691924591432  1.0000
  W   W77       1.0  0.8747044396762116  0.8766356601732184  0.1229832466172616  1.0000
  Mo  Mo31      1.0  0.7512388752974941  0.7485999865563582  0.2497561579034617  1.0000
  Nb  Nb9       1.0  0.8767000142128889  0.8736187166869386  0.375298825982873  1.0000
  W   W78       1.0  0.7495944951523646  0.7477043527162991  0.5027695490057711  1.0000
  W   W79       1.0  0.8733535975038009  0.8751571631661599  0.6268339524460378  1.0000
  W   W80       1.0  0.7507046554809351  0.7487150111390649  0.7491457520141858  1.0000
  W   W81       1.0  0.876470855977709  0.8751582025564066  0.8750915719302638  1.0000
