data_image0
_chemical_formula_structural       Mo3WMoWMo7WMoWMoWMo2WMo6W2Mo2WTaMo3WMo3WMoWMo5W2Mo2WMoWMoW2MoW3MoWMoTaMo2W2Mo4W2Mo2W2MoWMoW2Mo3WMo5W3Mo6WMoW3NbMoW2Mo2WTaMoWMoNbMoWMo3W2
_chemical_formula_sum              "Mo76 W46 Ta3 Nb2"
_cell_length_a       12.8
_cell_length_b       12.8
_cell_length_c       12.8
_cell_angle_alpha    90.0
_cell_angle_beta     90.0
_cell_angle_gamma    90.0

_space_group_name_H-M_alt    "P 1"
_space_group_IT_number       1

loop_
  _space_group_symop_operation_xyz
  'x, y, z'

loop_
  _atom_site_type_symbol
  _atom_site_label
  _atom_site_symmetry_multiplicity
  _atom_site_fract_x
  _atom_site_fract_y
  _atom_site_fract_z
  _atom_site_occupancy
  Mo  Mo1       1.0  0.9978622106238146  0.9997344896018627  0.9991199591643908  1.0000
  Mo  Mo2       1.0  0.12361671076756767  0.12659386398093375  0.12621165107808013  1.0000
  Mo  Mo3       1.0  0.0007185791423328537  0.9998869519217276  0.2499667052892426  1.0000
  W   W1        1.0  0.1232409568138188  0.12448279470684653  0.3755953304700898  1.0000
  Mo  Mo4       1.0  0.0023303852711566  0.9990383187063656  0.4996178952583191  1.0000
  W   W2        1.0  0.12455223075262348  0.12512227028553777  0.624687646311207  1.0000
  Mo  Mo5       1.0  0.000595678969151261  0.9993291207769341  0.7490321623914632  1.0000
  Mo  Mo6       1.0  0.12528149247870113  0.12568705536488795  0.874373025465105  1.0000
  Mo  Mo7       1.0  0.0006503955383895409  0.24996065516700228  0.0006170399326502136  1.0000
  Mo  Mo8       1.0  0.12704356405875267  0.3776019204662341  0.1251337098078269  1.0000
  Mo  Mo9       1.0  0.9992737033972837  0.2497965635031003  0.25022324583358063  1.0000
  Mo  Mo10      1.0  0.1243341307985158  0.37441831111992496  0.37540978134852565  1.0000
  Mo  Mo11      1.0  0.9987227802893015  0.24945215142303803  0.49961575870464925  1.0000
  W   W3        1.0  0.12706307566303612  0.37181257408649915  0.6268290048812329  1.0000
  Mo  Mo12      1.0  0.0006049025104617773  0.2475492932006324  0.7514292400634727  1.0000
  W   W4        1.0  0.12356302090731161  0.37483750740931854  0.8742882542054508  1.0000
  Mo  Mo13      1.0  0.001236027224879915  0.4999632766905897  0.0006661069415613799  1.0000
  W   W5        1.0  0.12671396434495055  0.6243177864341392  0.12812630678811168  1.0000
  Mo  Mo14      1.0  0.00042833298337787616  0.49987450479477386  0.25047575676184525  1.0000
  Mo  Mo15      1.0  0.12219827324024035  0.6262642262258866  0.37465011319282626  1.0000
  W   W6        1.0  0.0018053349652124699  0.5008958428124826  0.49998381323037755  1.0000
  Mo  Mo16      1.0  0.12491434801044145  0.6244678696229937  0.6248807505940127  1.0000
  Mo  Mo17      1.0  0.0013336866794704787  0.49932573512716305  0.7502715322184936  1.0000
  Mo  Mo18      1.0  0.12538040381340734  0.6239959414187791  0.8764026308098789  1.0000
  Mo  Mo19      1.0  0.004364765868593927  0.7502168720835279  0.00023023875891733464  1.0000
  Mo  Mo20      1.0  0.12653036122535666  0.8729973015809807  0.12524417519688688  1.0000
  Mo  Mo21      1.0  0.9999709684840989  0.7509291169798961  0.2502001548604525  1.0000
  W   W7        1.0  0.12653074243683676  0.873914315660884  0.3742298218056333  1.0000
  W   W8        1.0  0.0010325488494906448  0.7509225240880506  0.5005599554378761  1.0000
  Mo  Mo22      1.0  0.12766297852274958  0.8734602326969316  0.6219236426817978  1.0000
  Mo  Mo23      1.0  0.9987894699469595  0.7501915989619676  0.7491426952427517  1.0000
  W   W9        1.0  0.12313225941586001  0.8742572462466061  0.8719656322401269  1.0000
  Ta  Ta1       1.0  0.24815214341614075  0.0024014240279964408  0.0017472371711489518  1.0000
  Mo  Mo24      1.0  0.3736951157789126  0.12588621793948981  0.12586415181960597  1.0000
  Mo  Mo25      1.0  0.24936132795239843  0.0003359775840001879  0.25179853744957525  1.0000
  Mo  Mo26      1.0  0.3735457389907321  0.12399673203207925  0.3752260197623492  1.0000
  W   W10       1.0  0.25056093739737667  0.9989229615139175  0.5006820853903934  1.0000
  Mo  Mo27      1.0  0.37477110064406194  0.12625727914196816  0.6248390464125366  1.0000
  Mo  Mo28      1.0  0.2497967783418435  0.0005277863788168339  0.7486043193778679  1.0000
  Mo  Mo29      1.0  0.37528419311681926  0.1255615587820653  0.8748805424217275  1.0000
  W   W11       1.0  0.24998717589260505  0.2521272599218015  0.00037254488644786497  1.0000
  Mo  Mo30      1.0  0.3744152582311774  0.3760229027989008  0.12462570953741664  1.0000
  W   W12       1.0  0.24950634389786797  0.2513258582630317  0.24901997827927236  1.0000
  Mo  Mo31      1.0  0.37475908032452765  0.37143845116593166  0.37547740935493634  1.0000
  Mo  Mo32      1.0  0.24937154944979958  0.24965909415250997  0.4993331474350683  1.0000
  Mo  Mo33      1.0  0.37779405701138946  0.38483192924636306  0.6166269021734243  1.0000
  Mo  Mo34      1.0  0.2516746676246113  0.2520378776015067  0.7496377775596268  1.0000
  Mo  Mo35      1.0  0.37411759005382217  0.3748704461229932  0.8736230044884041  1.0000
  W   W13       1.0  0.2499480385992109  0.49991440474644333  0.9997780574822626  1.0000
  W   W14       1.0  0.37422780288243784  0.6248366623412416  0.12449606119751856  1.0000
  Mo  Mo36      1.0  0.25618390996527635  0.5032083707060596  0.25555685776102444  1.0000
  Mo  Mo37      1.0  0.4251559200029843  0.5769060104942892  0.425277490946847  1.0000
  W   W15       1.0  0.24382516869156512  0.5004104428376522  0.5002243077960116  1.0000
  Mo  Mo38      1.0  0.3750496367815974  0.6262570213617094  0.6284749357032451  1.0000
  W   W16       1.0  0.2524963444180805  0.5007019928412104  0.7495372426353102  1.0000
  Mo  Mo39      1.0  0.37454206566559134  0.6251028665340514  0.8767950216977362  1.0000
  W   W17       1.0  0.24978476904427332  0.7492361417307616  0.00010021250889949135  1.0000
  W   W18       1.0  0.3767194865910766  0.8719264934943414  0.12867000681543114  1.0000
  Mo  Mo40      1.0  0.2543821601009046  0.746303919417709  0.2536076249080277  1.0000
  W   W19       1.0  0.37363756864013714  0.8762843174714361  0.37428398140692903  1.0000
  W   W20       1.0  0.2563462836780234  0.7426155326602067  0.496638810598799  1.0000
  W   W21       1.0  0.3743457710288089  0.8752566435017586  0.6252999981366809  1.0000
  Mo  Mo41      1.0  0.24993533565013376  0.7507310728264961  0.7503998460325255  1.0000
  W   W22       1.0  0.3752840790839248  0.8746722526085895  0.8734610936855451  1.0000
  Mo  Mo42      1.0  0.500961424754377  0.9977836501171202  0.9993989376817506  1.0000
  Ta  Ta2       1.0  0.623884176348562  0.12216932776071547  0.12553002703447727  1.0000
  Mo  Mo43      1.0  0.4993368485742803  0.9991470511495149  0.2506038713332428  1.0000
  Mo  Mo44      1.0  0.6245695759695848  0.12867159248846477  0.376934007348019  1.0000
  W   W23       1.0  0.5003730106615276  0.0023077632753361428  0.50042321116764  1.0000
  W   W24       1.0  0.6255113741473999  0.12471363214709608  0.6254206376408207  1.0000
  Mo  Mo45      1.0  0.4996465579762915  0.0009324236071438084  0.7492119238878308  1.0000
  Mo  Mo46      1.0  0.6248006024793372  0.12652132983171385  0.87265269758587  1.0000
  Mo  Mo47      1.0  0.5000614612104545  0.2495895602740025  0.9995049422988007  1.0000
  Mo  Mo48      1.0  0.6251939459273597  0.3748423555743311  0.124601251570956  1.0000
  W   W25       1.0  0.49832586690570274  0.2523511563710074  0.2528066602917962  1.0000
  W   W26       1.0  0.614725735635195  0.382811549398247  0.37792401922023533  1.0000
  Mo  Mo49      1.0  0.5004280391495772  0.24801927397754303  0.5012333418758266  1.0000
  Mo  Mo50      1.0  0.6213257671546284  0.3759119169757539  0.6244665315894045  1.0000
  W   W27       1.0  0.4978643831314945  0.25132012778566476  0.748270854107279  1.0000
  W   W28       1.0  0.6239728867792751  0.37483167836743625  0.8751598439684036  1.0000
  Mo  Mo51      1.0  0.5006291103177554  0.5006540168096472  0.9990402251597972  1.0000
  W   W29       1.0  0.6222112401033556  0.6250580523924161  0.12615434630699474  1.0000
  Mo  Mo52      1.0  0.5005390177415183  0.4994899232212231  0.24596697928026046  1.0000
  W   W30       1.0  0.6289663100036835  0.6258954311937299  0.37461001778321684  1.0000
  W   W31       1.0  0.612860456566514  0.6233585082232203  0.6165011544868584  1.0000
  Mo  Mo53      1.0  0.5006622735836279  0.49920653417351735  0.7508045890544445  1.0000
  Mo  Mo54      1.0  0.6254685118597919  0.6244056688727257  0.8727594189283898  1.0000
  Mo  Mo55      1.0  0.4980637222696386  0.7507574106432497  0.0008766061503008363  1.0000
  W   W32       1.0  0.6219608638579641  0.8720016502071963  0.12655634847233946  1.0000
  Mo  Mo56      1.0  0.4981388994889813  0.7443511045650917  0.25516516065679307  1.0000
  Mo  Mo57      1.0  0.6248128421576993  0.8764324285135444  0.3738293052645986  1.0000
  Mo  Mo58      1.0  0.49991488166683207  0.7576680379396492  0.4997592665638053  1.0000
  Mo  Mo59      1.0  0.6251829673316964  0.8760067649504445  0.6255302795043967  1.0000
  Mo  Mo60      1.0  0.5012381862833862  0.7503600764745373  0.749540208998118  1.0000
  W   W33       1.0  0.6244216520891952  0.8764654616143358  0.8739598993087222  1.0000
  W   W34       1.0  0.7506310090156494  0.9997614546315341  0.9975848216702168  1.0000
  W   W35       1.0  0.8762090315237226  0.12498199551858521  0.12615796683327926  1.0000
  Mo  Mo61      1.0  0.7503998840294785  0.00014728552886824828  0.2480796266034879  1.0000
  Mo  Mo62      1.0  0.8738119710530022  0.12598736778629407  0.3733809550347627  1.0000
  Mo  Mo63      1.0  0.7502835793864464  0.0013964927571072103  0.49965357745075184  1.0000
  Mo  Mo64      1.0  0.8738019478235025  0.12256166093562945  0.6239832485844922  1.0000
  Mo  Mo65      1.0  0.7501702995427264  0.9983270360818918  0.7505276574450248  1.0000
  Mo  Mo66      1.0  0.8744285939380453  0.12490449381189134  0.8765133513996273  1.0000
  W   W36       1.0  0.7514364345633027  0.25020467637486854  0.9997341539930269  1.0000
  Mo  Mo67      1.0  0.8746888900308912  0.3733755223474488  0.12446403807934202  1.0000
  W   W37       1.0  0.7476767905253048  0.25378014143649663  0.253149505899499  1.0000
  W   W38       1.0  0.8749947639910691  0.37437978441006536  0.37209431618112965  1.0000
  W   W39       1.0  0.7480269484190634  0.2503131641131244  0.49877462067400635  1.0000
  Nb  Nb1       1.0  0.8783309046085546  0.3710531132392655  0.6292315205970989  1.0000
  Mo  Mo68      1.0  0.7473626477411309  0.2511763570244081  0.7502136519865439  1.0000
  W   W40       1.0  0.8749941802404965  0.37483276204492577  0.8764457994732473  1.0000
  W   W41       1.0  0.7514190061564061  0.49897383509436566  0.0003194533965801264  1.0000
  Mo  Mo69      1.0  0.875466610164829  0.6246229182141705  0.12516969620280202  1.0000
  Mo  Mo70      1.0  0.7493377815778062  0.5007634013777376  0.2498429181730373  1.0000
  W   W42       1.0  0.8765014031219238  0.6258841097871406  0.37301477658917903  1.0000
  Ta  Ta3       1.0  0.7515464526740028  0.4994060001255355  0.5032643794469067  1.0000
  Mo  Mo71      1.0  0.8731110864112845  0.6261032032132435  0.6232797648014193  1.0000
  W   W43       1.0  0.7474739475804043  0.5022321835333292  0.75071037289448  1.0000
  Mo  Mo72      1.0  0.8751052460812737  0.6240895405893966  0.8730110129982889  1.0000
  Nb  Nb2       1.0  0.7520807002171186  0.7483307800511064  0.9982952591363387  1.0000
  Mo  Mo73      1.0  0.8738574038000895  0.8766437880616685  0.12299212524386176  1.0000
  W   W44       1.0  0.7508251610181138  0.7512752469016449  0.2503928079043638  1.0000
  Mo  Mo74      1.0  0.8767401927839235  0.8748197437302363  0.37469417816788186  1.0000
  Mo  Mo75      1.0  0.749826828251589  0.7506762098334283  0.4990865808271401  1.0000
  Mo  Mo76      1.0  0.875435615019081  0.8741727848943761  0.6248116500650654  1.0000
  W   W45       1.0  0.7476007851924769  0.7471000937960092  0.744444694922549  1.0000
  W   W46       1.0  0.8768396742541595  0.875217177062668  0.8720253466421278  1.0000
