data_image0
_chemical_formula_structural       WTaWTaW3TaW8NbTaW5Ta2NbTaNbWTaWTaNbW3TaW2TaW2Ta2W2TaNbW2Ta2WTaW5TaW2TaW2MoW2Ta2WNbW3Ta2WNbW5NbWTa2W4NbMoWTaWNbMoWNbWTaW2TaWTa2NbTaWTaWNb2W2TaWTaMoTa2W2Mo
_chemical_formula_sum              "W72 Ta36 Nb14 Mo5"
_cell_length_a       12.8
_cell_length_b       12.8
_cell_length_c       12.8
_cell_angle_alpha    90.0
_cell_angle_beta     90.0
_cell_angle_gamma    90.0

_space_group_name_H-M_alt    "P 1"
_space_group_IT_number       1

loop_
  _space_group_symop_operation_xyz
  'x, y, z'

loop_
  _atom_site_type_symbol
  _atom_site_label
  _atom_site_symmetry_multiplicity
  _atom_site_fract_x
  _atom_site_fract_y
  _atom_site_fract_z
  _atom_site_occupancy
  W   W1        1.0  0.9989104360606613  0.00011279862873946864  0.0010237596178387996  1.0000
  Ta  Ta1       1.0  0.12744743478914622  0.12949082481069077  0.12793655653819896  1.0000
  W   W2        1.0  0.9995249688044724  0.00329395442877558  0.2512316536944498  1.0000
  Ta  Ta2       1.0  0.12568522442724328  0.1301667720619482  0.37734765356445565  1.0000
  W   W3        1.0  0.9988955609044186  0.0018273835794967884  0.4996478737328688  1.0000
  W   W4        1.0  0.1256758918330706  0.12836546400099297  0.6235127045901989  1.0000
  W   W5        1.0  0.9995827318680114  0.999158186328461  0.749485661874802  1.0000
  Ta  Ta3       1.0  0.12314119721292449  0.12536134704873608  0.8753664620884339  1.0000
  W   W6        1.0  0.0006963257947098625  0.25217746654355233  0.0035331421773036067  1.0000
  W   W7        1.0  0.12895944220136002  0.3744312689935738  0.1291235242399983  1.0000
  W   W8        1.0  0.00061540710926562  0.2522913896074521  0.2500975030608301  1.0000
  W   W9        1.0  0.11872719903765372  0.37641422931656976  0.37733423184779813  1.0000
  W   W10       1.0  0.0026195063019705646  0.2505319558586883  0.5000188696094369  1.0000
  W   W11       1.0  0.1253442855193017  0.37496785227751467  0.6236022381634652  1.0000
  W   W12       1.0  0.002529088729781007  0.25171836098742895  0.7490397533619182  1.0000
  W   W13       1.0  0.12454987878969608  0.3746577530881343  0.8756002508762826  1.0000
  Nb  Nb1       1.0  0.0017903618928276504  0.49717247592899116  0.002204666466889542  1.0000
  Ta  Ta4       1.0  0.12966236534961562  0.6214150949241543  0.12761204041441523  1.0000
  W   W14       1.0  0.000506325405493819  0.4977376780027396  0.2503380150748852  1.0000
  W   W15       1.0  0.12592069190671012  0.6247691974508931  0.37596885158272964  1.0000
  W   W16       1.0  0.00030463793834619856  0.5018135800002889  0.4995353403761783  1.0000
  W   W17       1.0  0.12271237205917904  0.6244091018707463  0.6240765452446816  1.0000
  W   W18       1.0  0.002773979063911243  0.4995863869980519  0.7476002471122467  1.0000
  Ta  Ta5       1.0  0.12634935322168908  0.623076929286005  0.8726257147280764  1.0000
  Ta  Ta6       1.0  0.9986380761720276  0.7521981211453844  0.9977510270121537  1.0000
  Nb  Nb2       1.0  0.12601146391321827  0.8764012515779058  0.12529654899651338  1.0000
  Ta  Ta7       1.0  0.0018752123995154938  0.7481925018356023  0.2520286807898471  1.0000
  Nb  Nb3       1.0  0.12577126499162586  0.8742802073073347  0.37610720030358896  1.0000
  W   W19       1.0  0.9994337354951599  0.748214629933788  0.5020678549528078  1.0000
  Ta  Ta8       1.0  0.12147877372534756  0.875611825463358  0.6254041317832298  1.0000
  W   W20       1.0  0.9972896311708902  0.7504400870440963  0.7487648267394202  1.0000
  Ta  Ta9       1.0  0.12647829288442683  0.8762532815551094  0.8727272753624986  1.0000
  Nb  Nb4       1.0  0.2541885562370639  0.9992431739218552  0.001776893210544238  1.0000
  W   W21       1.0  0.377663842740968  0.1283351111816069  0.12848955746989024  1.0000
  W   W22       1.0  0.25160121431057186  0.0024284434154024826  0.24944928751992151  1.0000
  W   W23       1.0  0.3755064349970335  0.12082246255879496  0.3729730279691976  1.0000
  Ta  Ta10      1.0  0.25085277707776554  0.0038151400475520286  0.5027932660734871  1.0000
  W   W24       1.0  0.37198969168562546  0.12396860000505924  0.625128735897456  1.0000
  W   W25       1.0  0.2518216608645337  0.00024523483706484473  0.7484199784519301  1.0000
  Ta  Ta11      1.0  0.3753810338331601  0.12380717031469203  0.8779144791955076  1.0000
  W   W26       1.0  0.24963246662923955  0.2524825501271159  0.0034031055409748188  1.0000
  W   W27       1.0  0.3776700172095645  0.37497126756955684  0.11994704763148574  1.0000
  Ta  Ta12      1.0  0.26372740493485775  0.26043567386719  0.26233472208561903  1.0000
  Ta  Ta13      1.0  0.43590457039094765  0.43895731997552473  0.43788436260739216  1.0000
  W   W28       1.0  0.25908977880848  0.26203229232011155  0.4952647252626381  1.0000
  W   W29       1.0  0.3741806058530248  0.37603515742300286  0.6303565030896524  1.0000
  Ta  Ta14      1.0  0.24820567069967997  0.25094721063568615  0.747123919766673  1.0000
  Nb  Nb5       1.0  0.37452407338665555  0.3766910230110004  0.8779898344824424  1.0000
  W   W30       1.0  0.251537091503961  0.4996456493361766  0.0010076304591464858  1.0000
  W   W31       1.0  0.3748747312166773  0.6241759550758161  0.12362367718935917  1.0000
  Ta  Ta15      1.0  0.2600736876320051  0.4933096337719131  0.2599902771025848  1.0000
  Ta  Ta16      1.0  0.37496582990014904  0.6349624136711768  0.37391421346898357  1.0000
  W   W32       1.0  0.24099248064637602  0.4999765459602251  0.5003209751627936  1.0000
  Ta  Ta17      1.0  0.3800891971878694  0.6141059467199163  0.61624177339086  1.0000
  W   W33       1.0  0.24967278012842375  0.5000691735189512  0.7493018672779119  1.0000
  W   W34       1.0  0.37463802248023936  0.6252573843310899  0.8745819961540164  1.0000
  W   W35       1.0  0.25203081849979075  0.7484714243265254  0.9996876974236656  1.0000
  W   W36       1.0  0.37624740697546705  0.8750753947705867  0.12521107764507527  1.0000
  W   W37       1.0  0.25203026604588913  0.7499985550572213  0.24697833152818535  1.0000
  Ta  Ta18      1.0  0.375217424126599  0.8755576060239713  0.3714938381438046  1.0000
  W   W38       1.0  0.24962041687992437  0.7491529018953693  0.501649997077411  1.0000
  W   W39       1.0  0.375041412561677  0.8732386571666135  0.6269942357615206  1.0000
  Ta  Ta19      1.0  0.25436736868536824  0.7474055820335228  0.7468206566226278  1.0000
  W   W40       1.0  0.3773605119259705  0.8735372824277836  0.8736293325974555  1.0000
  W   W41       1.0  0.5005330775512126  0.9996797062571685  0.0033470173150492604  1.0000
  Mo  Mo1       1.0  0.623184358225223  0.12722308163669305  0.12647679777260787  1.0000
  W   W42       1.0  0.5006601395157626  0.0024220238964428155  0.24617111006892262  1.0000
  W   W43       1.0  0.6227452126428102  0.12350056639230471  0.3725767984985431  1.0000
  Ta  Ta20      1.0  0.5018609556996196  0.9975028460645217  0.4992878976366424  1.0000
  Ta  Ta21      1.0  0.6250745663529937  0.12255164125131701  0.6271272802912381  1.0000
  W   W44       1.0  0.4973854526534365  0.9971769944465436  0.7520917177838436  1.0000
  Nb  Nb6       1.0  0.6247041741048445  0.12486458936930911  0.8758589814598928  1.0000
  W   W45       1.0  0.5015947876157539  0.2492586354549668  0.004772203692126783  1.0000
  W   W46       1.0  0.6241317507190877  0.3755346155026679  0.12228500560408445  1.0000
  W   W47       1.0  0.4954905760973316  0.26052746026202056  0.2572852028561822  1.0000
  Ta  Ta22      1.0  0.6305743584804597  0.37597216606530726  0.37088773940137076  1.0000
  Ta  Ta23      1.0  0.49652543859978776  0.24241432889971407  0.49654644625464955  1.0000
  W   W48       1.0  0.6142498396628883  0.3796821681537539  0.6163657528611037  1.0000
  Nb  Nb7       1.0  0.4996116118298941  0.2509917258330175  0.7503087466666589  1.0000
  W   W49       1.0  0.6261410099531473  0.37560105339155203  0.8760793005882362  1.0000
  W   W50       1.0  0.500551228803882  0.5008440372781306  0.00047211889569542315  1.0000
  W   W51       1.0  0.625886394718548  0.6253987764790113  0.12651932603310492  1.0000
  W   W52       1.0  0.5007642284853027  0.5014208520808057  0.24130917874414434  1.0000
  W   W53       1.0  0.6129837904692406  0.6167761388125879  0.3778292869829644  1.0000
  Nb  Nb8       1.0  0.6165684590708488  0.614250615380966  0.6165170339295293  1.0000
  W   W54       1.0  0.4996528764846865  0.4973650535288737  0.7553592763391342  1.0000
  Ta  Ta24      1.0  0.6242895747786861  0.6257875911793389  0.8737673283041492  1.0000
  Ta  Ta25      1.0  0.49838418688728764  0.7513420495776818  0.001688698291192072  1.0000
  W   W55       1.0  0.6240870720396655  0.8728124263530663  0.12635902615475736  1.0000
  W   W56       1.0  0.5031841979540577  0.7500356825054466  0.2492027191317731  1.0000
  W   W57       1.0  0.6253273084577078  0.8721937133388584  0.37216490654992096  1.0000
  W   W58       1.0  0.49985527227550347  0.754506433739538  0.49837979347804673  1.0000
  Nb  Nb9       1.0  0.6251387708190272  0.8729287729473817  0.6293420738826155  1.0000
  Mo  Mo2       1.0  0.5004271972070587  0.746006026420088  0.7467649015484644  1.0000
  W   W59       1.0  0.6233584531489962  0.8747442304418678  0.8742641944592299  1.0000
  Ta  Ta26      1.0  0.7463476704785476  0.9995000029221816  0.0011484140505636582  1.0000
  W   W60       1.0  0.8785210153467529  0.1251597600466903  0.12345302822052366  1.0000
  Nb  Nb10      1.0  0.7470537755619068  0.002611872770331824  0.25160265836948703  1.0000
  Mo  Mo3       1.0  0.8754310728447126  0.12614079324904276  0.3736748615455881  1.0000
  W   W61       1.0  0.7495549200891436  0.9995939884549724  0.49969396374051744  1.0000
  Nb  Nb11      1.0  0.8787254090601503  0.1215557328284342  0.6255217806854858  1.0000
  W   W62       1.0  0.7509854156405861  0.9965288246813371  0.7514822616508837  1.0000
  Ta  Ta27      1.0  0.8773322492001738  0.12584584891235648  0.8762965691345292  1.0000
  W   W63       1.0  0.7490489037540264  0.25122669989394253  0.0023069982875960787  1.0000
  W   W64       1.0  0.8755506462190564  0.3745291869094949  0.12535393526848324  1.0000
  Ta  Ta28      1.0  0.7508472263891204  0.24791363804556807  0.2451310326649947  1.0000
  W   W65       1.0  0.8781927108550748  0.3743898776783678  0.3722255363311921  1.0000
  Ta  Ta29      1.0  0.7517784143772277  0.24679601662865117  0.4969525468836964  1.0000
  Ta  Ta30      1.0  0.8775596627431181  0.3775768691756182  0.6247831234083857  1.0000
  Nb  Nb12      1.0  0.7485623040010665  0.2530988606209733  0.7477690191697356  1.0000
  Ta  Ta31      1.0  0.8744648187856405  0.3757517015284514  0.875850358343581  1.0000
  W   W66       1.0  0.7467205651344493  0.49870122989278676  0.0014931337223618264  1.0000
  Ta  Ta32      1.0  0.8705463634150381  0.623850368739134  0.12450541097382634  1.0000
  W   W67       1.0  0.7483633544156079  0.500051635975698  0.24867894924140949  1.0000
  Nb  Nb13      1.0  0.8735349712895384  0.6237953714353592  0.37447033196940643  1.0000
  Nb  Nb14      1.0  0.752258345928762  0.49850119337696464  0.49842966077401607  1.0000
  W   W68       1.0  0.8749406647428046  0.6268174287522279  0.6271774604562939  1.0000
  W   W69       1.0  0.7451087484165111  0.498565743704309  0.74623678899869  1.0000
  Ta  Ta33      1.0  0.8724237851175964  0.6226077497518197  0.8716027426522486  1.0000
  W   W70       1.0  0.7482643645493835  0.7516410077417445  0.9982822741246034  1.0000
  Ta  Ta34      1.0  0.8721302339565158  0.8750548485559464  0.12789502237927028  1.0000
  Mo  Mo4       1.0  0.7474186744915096  0.7474414891212957  0.2509214338750847  1.0000
  Ta  Ta35      1.0  0.8741851461679634  0.8769791655696518  0.3775365879556372  1.0000
  Ta  Ta36      1.0  0.7462351857554443  0.7481764227213568  0.5003358292711894  1.0000
  W   W71       1.0  0.8745020674325987  0.8742311413391773  0.6264982557024924  1.0000
  W   W72       1.0  0.7494899700154158  0.748875110837429  0.7488215525903031  1.0000
  Mo  Mo5       1.0  0.8734195044271702  0.8745019359559952  0.8747776157002016  1.0000
