data_image0
_chemical_formula_structural       TaW3Mo2NbW2MoNb2MoW2Mo2NbWMoWNb2MoWNbWMoWMoWNbW2MoW2Mo2NbWMoW2MoW2MoW3MoW2Mo2W7MoW3MoWNb2W7NbW3Mo2W2TaNb2MoWMoWMo2WMoNbMo4NbMo3WNbWNbMoNbMo5WMoWTaW2Ta2MoNb
_chemical_formula_sum              "Ta5 W59 Mo43 Nb20"
_cell_length_a       12.8
_cell_length_b       12.8
_cell_length_c       12.8
_cell_angle_alpha    90.0
_cell_angle_beta     90.0
_cell_angle_gamma    90.0

_space_group_name_H-M_alt    "P 1"
_space_group_IT_number       1

loop_
  _space_group_symop_operation_xyz
  'x, y, z'

loop_
  _atom_site_type_symbol
  _atom_site_label
  _atom_site_symmetry_multiplicity
  _atom_site_fract_x
  _atom_site_fract_y
  _atom_site_fract_z
  _atom_site_occupancy
  Ta  Ta1       1.0  0.0006527594675867618  0.004395066771956883  0.00297175157154086  1.0000
  W   W1        1.0  0.12859887574653156  0.12684814784760476  0.1255150700903323  1.0000
  W   W2        1.0  0.001475530367445803  0.001555324083606231  0.25366198483234403  1.0000
  W   W3        1.0  0.1270355366914503  0.1240282299403406  0.3763016218536448  1.0000
  Mo  Mo1       1.0  0.001571285701403117  0.9996816923906813  0.4976919948268611  1.0000
  Mo  Mo2       1.0  0.1261435324602035  0.12630213708123944  0.6242505417765534  1.0000
  Nb  Nb1       1.0  0.00297437884470916  0.0033095039250568463  0.745557564294536  1.0000
  W   W4        1.0  0.12709290574624366  0.12765921100930822  0.8753260983230488  1.0000
  W   W5        1.0  0.0008321324006660061  0.2536567693548403  0.999629582384721  1.0000
  Mo  Mo3       1.0  0.1262005668910423  0.3747159492265961  0.12479127290759973  1.0000
  Nb  Nb2       1.0  0.9981442405947467  0.24937233394579378  0.24799587088391334  1.0000
  Nb  Nb3       1.0  0.1259976154545554  0.37387698367122135  0.3769956260306535  1.0000
  Mo  Mo4       1.0  0.0008367853551513885  0.25099026882037856  0.5017107418061982  1.0000
  W   W6        1.0  0.12689016517897483  0.37393375882835916  0.6249755721779141  1.0000
  W   W7        1.0  0.0026746242516297062  0.2513800662483451  0.7493370262242942  1.0000
  Mo  Mo5       1.0  0.1261259749610533  0.3739966938803036  0.8745368330458504  1.0000
  Mo  Mo6       1.0  0.001582455662209365  0.49860094593189475  0.0017625611476966476  1.0000
  Nb  Nb4       1.0  0.12568776794138423  0.6228875350289585  0.12503363825485656  1.0000
  W   W8        1.0  0.9978676678536023  0.5005289306967521  0.25065921918962153  1.0000
  Mo  Mo7       1.0  0.12557561800895  0.6251365858159752  0.3743920035440015  1.0000
  W   W9        1.0  0.9977760150251805  0.5011392265526075  0.4982480104044801  1.0000
  Nb  Nb5       1.0  0.12827033924035228  0.6238980249433221  0.6252180093141263  1.0000
  Nb  Nb6       1.0  0.9982580590900488  0.49851338423892566  0.751939159120863  1.0000
  Mo  Mo8       1.0  0.12609148310552293  0.6243654608236822  0.8756207553001659  1.0000
  W   W10       1.0  0.999874938099589  0.7464109940209118  0.9987649502299956  1.0000
  Nb  Nb7       1.0  0.12823122635644857  0.8746762540428716  0.12864865118125896  1.0000
  W   W11       1.0  0.9991438668600575  0.7481456125388342  0.2545634366084593  1.0000
  Mo  Mo9       1.0  0.12542954776240722  0.8748989179765465  0.37624645308037286  1.0000
  W   W12       1.0  0.0019105774950521571  0.7492323666181432  0.4982599033998278  1.0000
  Mo  Mo10      1.0  0.12698093708075256  0.873859729014615  0.6234067760887616  1.0000
  W   W13       1.0  0.0006768889814023156  0.7476881810978524  0.748463573016255  1.0000
  Nb  Nb8       1.0  0.12743157319847484  0.8744826392480153  0.8726806515370524  1.0000
  W   W14       1.0  0.25321469981118944  0.0007458563126291141  0.0012235027129358527  1.0000
  W   W15       1.0  0.37466949205515016  0.12524141368645275  0.12714338212947257  1.0000
  Mo  Mo11      1.0  0.25070600053419384  0.001087929826389616  0.2516200712270444  1.0000
  W   W16       1.0  0.3732772285700793  0.12569883240706592  0.37458503074083405  1.0000
  W   W17       1.0  0.2498487462962304  0.9998224497002519  0.5003480485482606  1.0000
  Mo  Mo12      1.0  0.37370313353192586  0.12492841690541144  0.6222874227314086  1.0000
  Mo  Mo13      1.0  0.2503778201760901  0.00031263456537584293  0.7478661436214655  1.0000
  Nb  Nb9       1.0  0.372696951212631  0.12550945035747577  0.8764243683524711  1.0000
  W   W18       1.0  0.24917482596198837  0.25286089580063537  0.001282879309914466  1.0000
  Mo  Mo14      1.0  0.3752871378089901  0.3752754070081227  0.12645014289936995  1.0000
  W   W19       1.0  0.2534912750125507  0.25123375453751307  0.24992840665477953  1.0000
  W   W20       1.0  0.379537233397663  0.37753452109704766  0.3779697550901417  1.0000
  Mo  Mo15      1.0  0.2526180262118571  0.2511837542719776  0.4997054830165254  1.0000
  W   W21       1.0  0.37579842945432707  0.38041275555302817  0.61950457806776  1.0000
  W   W22       1.0  0.24859103935387497  0.2524488963328352  0.7476678984859804  1.0000
  Mo  Mo16      1.0  0.37457490864590137  0.3759741083994183  0.8747564713731831  1.0000
  W   W23       1.0  0.25191465938357205  0.4982099171039628  0.998491960068431  1.0000
  W   W24       1.0  0.37583496427981045  0.6240296589191824  0.12715817814890024  1.0000
  W   W25       1.0  0.25336630528597054  0.49957430240936435  0.2518533476687414  1.0000
  Mo  Mo17      1.0  0.3764604035818112  0.6221193813622534  0.3777247642892389  1.0000
  W   W26       1.0  0.25134166553575593  0.5011624235205548  0.4985024519256053  1.0000
  W   W27       1.0  0.3795938785286701  0.6222249804942568  0.6222510760342382  1.0000
  Mo  Mo18      1.0  0.25374786025903573  0.4993568499268364  0.7477552030011393  1.0000
  Mo  Mo19      1.0  0.3735059286780182  0.6239695043725463  0.87484104979511  1.0000
  W   W28       1.0  0.25213383539561984  0.7479474595414691  0.9986522139952001  1.0000
  W   W29       1.0  0.37411421552189655  0.8749208479722931  0.12778988802291874  1.0000
  W   W30       1.0  0.25255826652664237  0.7480238804237918  0.25426232784131375  1.0000
  W   W31       1.0  0.3749187477581694  0.8745207722368811  0.37489227881824294  1.0000
  W   W32       1.0  0.2520862857542112  0.7495609416071131  0.49818292998114166  1.0000
  W   W33       1.0  0.3741209050938627  0.8720868714083313  0.6233808322107192  1.0000
  W   W34       1.0  0.25320858063150076  0.7482733542820951  0.7486400135540006  1.0000
  Mo  Mo20      1.0  0.3744227344925144  0.8738471782593983  0.8749598991018243  1.0000
  W   W35       1.0  0.4999305029058507  0.001243387335596493  0.0012417738947801044  1.0000
  W   W36       1.0  0.6236620517696416  0.1281477702581683  0.12425259864075895  1.0000
  W   W37       1.0  0.4979629654708156  0.0019591959640519727  0.2517649025480724  1.0000
  Mo  Mo21      1.0  0.622176219899881  0.1257307665607782  0.3730105333599567  1.0000
  W   W38       1.0  0.49873545119417856  0.999569503471149  0.49774513268147685  1.0000
  Nb  Nb10      1.0  0.625558744230612  0.1234965779171931  0.6247839146715815  1.0000
  Nb  Nb11      1.0  0.49864122013035006  0.99630535869071  0.7497227320371035  1.0000
  W   W39       1.0  0.6249986014993697  0.12594749352578805  0.8782841154119239  1.0000
  W   W40       1.0  0.4996183238800806  0.2522814867517952  0.0026235166514875542  1.0000
  W   W41       1.0  0.6245144653667525  0.37526437805785806  0.1274183625581818  1.0000
  W   W42       1.0  0.499887216719822  0.25198273638684143  0.2518167926638855  1.0000
  W   W43       1.0  0.6216398951588188  0.3796119986549498  0.37609030289301937  1.0000
  W   W44       1.0  0.49869156143408694  0.24906431950268096  0.4980010442803854  1.0000
  W   W45       1.0  0.621387059829853  0.38218260035980195  0.6203576104617498  1.0000
  Nb  Nb12      1.0  0.49710200831346724  0.2546512575485542  0.7477191539813206  1.0000
  W   W46       1.0  0.6245242710967238  0.37486596543458367  0.8767780101133638  1.0000
  W   W47       1.0  0.49749131723513007  0.49751101013403437  0.0004393175225268222  1.0000
  W   W48       1.0  0.6238986630629255  0.6228756591413374  0.12822806874194123  1.0000
  Mo  Mo22      1.0  0.49968855753796787  0.4990842420255531  0.24936280112602133  1.0000
  Mo  Mo23      1.0  0.6215085520868577  0.6213082335291014  0.3771132364700064  1.0000
  W   W49       1.0  0.6196620984287041  0.6215149481658954  0.6224278160389776  1.0000
  W   W50       1.0  0.4987632379163945  0.4994911542065001  0.7502853677961147  1.0000
  Ta  Ta2       1.0  0.6248122690037153  0.6256333077637943  0.8717660491969138  1.0000
  Nb  Nb13      1.0  0.49719829700391516  0.7496225602966085  0.9987833733629273  1.0000
  Nb  Nb14      1.0  0.6226208073442465  0.8736944247090275  0.12753564589784944  1.0000
  Mo  Mo24      1.0  0.49967380392304583  0.7487340176625811  0.2531177231949706  1.0000
  W   W51       1.0  0.6228305310926875  0.8747246924663415  0.37640518588851696  1.0000
  Mo  Mo25      1.0  0.4986897599028023  0.7509574132866604  0.4998112560603172  1.0000
  W   W52       1.0  0.6232976398217589  0.8715295266030121  0.6245259381133227  1.0000
  Mo  Mo26      1.0  0.49912049031963  0.7468296076859895  0.7460572066063347  1.0000
  Mo  Mo27      1.0  0.6250933968208552  0.8760532294576628  0.8741657736276875  1.0000
  W   W53       1.0  0.7463228587486658  0.0009535235151072265  0.00018438968640301258  1.0000
  Mo  Mo28      1.0  0.8752836050327234  0.12584330318173453  0.12496526819929062  1.0000
  Nb  Nb15      1.0  0.7496251119455631  0.0035999746132011506  0.2529705976307451  1.0000
  Mo  Mo29      1.0  0.8770334705279458  0.12487120694367054  0.3752326465437103  1.0000
  Mo  Mo30      1.0  0.74798289043437  0.998373845281316  0.4996057344117915  1.0000
  Mo  Mo31      1.0  0.8769905392832278  0.1266950971219924  0.6239190931602822  1.0000
  Mo  Mo32      1.0  0.7485960206504279  0.9994456435774373  0.7499848430484368  1.0000
  Nb  Nb16      1.0  0.8739438989880532  0.12702785284331472  0.8753176559544723  1.0000
  Mo  Mo33      1.0  0.7488975394542077  0.2496458788567862  0.001723453607213295  1.0000
  Mo  Mo34      1.0  0.8744302851220281  0.3758723556995206  0.12646575196484716  1.0000
  Mo  Mo35      1.0  0.7465299597982125  0.25306905204805086  0.25054187382344906  1.0000
  W   W54       1.0  0.8726680708704321  0.3770293348956322  0.37476300643503846  1.0000
  Nb  Nb17      1.0  0.7482494967942256  0.251057199307662  0.4960425114797998  1.0000
  W   W55       1.0  0.8761934536773069  0.3765424825703996  0.6216471893227662  1.0000
  Nb  Nb18      1.0  0.7516815461729621  0.2550099709253547  0.7493350109823893  1.0000
  Mo  Mo36      1.0  0.8752428264513811  0.37573563478676575  0.874367976172285  1.0000
  Nb  Nb19      1.0  0.7521919233034667  0.49919990862865365  0.0007476169425093383  1.0000
  Mo  Mo37      1.0  0.8742505398661454  0.625124613942605  0.1259559097394668  1.0000
  Mo  Mo38      1.0  0.7485901942273242  0.5002552398922004  0.2526456844950358  1.0000
  Mo  Mo39      1.0  0.8760168835165217  0.6247512192680159  0.3744390497196756  1.0000
  Mo  Mo40      1.0  0.7494810606377488  0.4996404343842778  0.5006050485988698  1.0000
  Mo  Mo41      1.0  0.8741257167664179  0.6239642083980039  0.624815552132034  1.0000
  W   W56       1.0  0.7481345588156769  0.49971414315083146  0.7460981882300145  1.0000
  Mo  Mo42      1.0  0.8759056935344833  0.625273611766233  0.8751471957087097  1.0000
  W   W57       1.0  0.7503395893709319  0.7481469307032309  0.0010836013542005593  1.0000
  Ta  Ta3       1.0  0.8745136574708048  0.8720468076720651  0.12801513822507238  1.0000
  W   W58       1.0  0.7485370829286396  0.7447410259466135  0.25237583252843204  1.0000
  W   W59       1.0  0.876935116251615  0.87512339041371  0.37568742749420125  1.0000
  Ta  Ta4       1.0  0.74830964161134  0.7433686656905346  0.49609640183926007  1.0000
  Ta  Ta5       1.0  0.8734575949905816  0.8760877792305309  0.6224198456738155  1.0000
  Mo  Mo43      1.0  0.7488754387071782  0.7472933791179176  0.7483351965500553  1.0000
  Nb  Nb20      1.0  0.8723516885082627  0.8723611355176677  0.8735711483027219  1.0000
