data_image0
_chemical_formula_structural       TaW2Ta9WTaNbTa4NbTa8WTa9NbTaWTa2NbTa14WTa2NbWTa14WTa3WTa4MoTa13Nb2WTa9NbTa3NbTa4WTa5
_chemical_formula_sum              "Ta106 W11 Nb9 Mo1"
_cell_length_a       12.8
_cell_length_b       12.8
_cell_length_c       12.8
_cell_angle_alpha    90.0
_cell_angle_beta     90.0
_cell_angle_gamma    90.0

_space_group_name_H-M_alt    "P 1"
_space_group_IT_number       1

loop_
  _space_group_symop_operation_xyz
  'x, y, z'

loop_
  _atom_site_type_symbol
  _atom_site_label
  _atom_site_symmetry_multiplicity
  _atom_site_fract_x
  _atom_site_fract_y
  _atom_site_fract_z
  _atom_site_occupancy
  Ta  Ta1       1.0  1.0230335314727989e-05  0.0012842633059246544  0.9998287147256499  1.0000
  W   W1        1.0  0.1252293445505605  0.12483814241376726  0.12519678193736408  1.0000
  W   W2        1.0  8.448892062949791e-05  0.9999764001904249  0.24989391986581663  1.0000
  Ta  Ta2       1.0  0.12350708410588906  0.12534401360366393  0.37568750762045855  1.0000
  Ta  Ta3       1.0  0.9989894137833654  0.9988284384264458  0.5003989930903232  1.0000
  Ta  Ta4       1.0  0.12528481714602147  0.1267686237951292  0.6238911638114562  1.0000
  Ta  Ta5       1.0  0.9985275987609952  0.0006031857460614391  0.7509556617138614  1.0000
  Ta  Ta6       1.0  0.12732177650754184  0.1269165582849457  0.8752450780498098  1.0000
  Ta  Ta7       1.0  0.9996272167816522  0.2477797061114313  6.145036159558245e-05  1.0000
  Ta  Ta8       1.0  0.12673584168375973  0.3738088062951642  0.12443682734190764  1.0000
  Ta  Ta9       1.0  0.001704930248590218  0.2479741778206812  0.24801485653567207  1.0000
  Ta  Ta10      1.0  0.12408409431254311  0.3724210809256473  0.3753720625478821  1.0000
  W   W3        1.0  0.9999921963867677  0.24930224697073206  0.49999818927998174  1.0000
  Ta  Ta11      1.0  0.12386136189986678  0.3732056597946407  0.6243522791422538  1.0000
  Nb  Nb1       1.0  0.9991380155904326  0.2485552222170317  0.7515819878006181  1.0000
  Ta  Ta12      1.0  0.1256534204097848  0.3732297058888157  0.87599278949738  1.0000
  Ta  Ta13      1.0  0.9994189077648526  0.500678362849573  0.9999739430532316  1.0000
  Ta  Ta14      1.0  0.12720841717352932  0.6262819292252536  0.1263528730540816  1.0000
  Ta  Ta15      1.0  0.0006777499477802517  0.5005508131049278  0.2497541552204605  1.0000
  Nb  Nb2       1.0  0.1261388609063121  0.6281190168897176  0.3743174982360225  1.0000
  Ta  Ta16      1.0  0.0015049194999419598  0.5004542560626373  0.49860640622053787  1.0000
  Ta  Ta17      1.0  0.12489830577000657  0.6281105546565111  0.6261297294182656  1.0000
  Ta  Ta18      1.0  0.9997085374622737  0.49997971827128723  0.7502305944380554  1.0000
  Ta  Ta19      1.0  0.1259559353027754  0.6261444731909277  0.8738020854229493  1.0000
  Ta  Ta20      1.0  0.9987994014671493  0.7497510984134413  0.9998524933520441  1.0000
  Ta  Ta21      1.0  0.12495272222423162  0.8745058601839212  0.1281082062127465  1.0000
  Ta  Ta22      1.0  3.639798172600057e-05  0.7501438833567242  0.24988993411398214  1.0000
  Ta  Ta23      1.0  0.12288698221335893  0.8749001923921491  0.37396543077384203  1.0000
  W   W4        1.0  0.998936792060077  0.7507009843698499  0.49973089417069966  1.0000
  Ta  Ta24      1.0  0.12366571238573341  0.8734521645518458  0.6248969438994224  1.0000
  Ta  Ta25      1.0  0.9983878132190412  0.7507010553437622  0.7506516374763639  1.0000
  Ta  Ta26      1.0  0.12587078672986632  0.874534990625872  0.8742184983147345  1.0000
  Ta  Ta27      1.0  0.24908312998366375  0.0006403850077280987  0.0011604345210820479  1.0000
  Ta  Ta28      1.0  0.3738282370664456  0.12718104055726323  0.12439891399183757  1.0000
  Ta  Ta29      1.0  0.24765973663574115  0.0015733434279793389  0.24878578416056846  1.0000
  Ta  Ta30      1.0  0.374137309613922  0.12579224007944007  0.37442915800341287  1.0000
  Ta  Ta31      1.0  0.250036288930692  0.9992255388998091  0.4996830354552487  1.0000
  Ta  Ta32      1.0  0.3745311367467473  0.1262730418378594  0.6254142215565618  1.0000
  Nb  Nb3       1.0  0.24940805344806682  0.00023869674243061166  0.7496446331609491  1.0000
  Ta  Ta33      1.0  0.37341946107405405  0.12620759354864905  0.875609326225758  1.0000
  W   W5        1.0  0.2483799092623668  0.2487125187620501  0.0010868059543301552  1.0000
  Ta  Ta34      1.0  0.37361382938834864  0.3741407097449581  0.12410338495506729  1.0000
  Ta  Ta35      1.0  0.25124673129329805  0.2514018107953949  0.2514593326385355  1.0000
  Nb  Nb4       1.0  0.38362030670873287  0.38439819845385725  0.38315687441374263  1.0000
  Ta  Ta36      1.0  0.25390957718147933  0.2539346812219668  0.5004144909548944  1.0000
  Ta  Ta37      1.0  0.38998730122573816  0.3894257725214612  0.6157893660938001  1.0000
  Ta  Ta38      1.0  0.25420050945363304  0.2545423376035955  0.7464435765595729  1.0000
  Ta  Ta39      1.0  0.37390826805837685  0.37407850018223804  0.8770513881094432  1.0000
  Ta  Ta40      1.0  0.24997190733303631  0.5005475136153583  0.00047145156324703615  1.0000
  Ta  Ta41      1.0  0.3732021181203699  0.6270628331880883  0.1273922502924162  1.0000
  Ta  Ta42      1.0  0.2527978477171401  0.5005010270095607  0.25399336666854067  1.0000
  Ta  Ta43      1.0  0.3875620244307917  0.6173327177146487  0.38682797932176083  1.0000
  Ta  Ta44      1.0  0.24496597425551908  0.5003509335348267  0.50017648626806  1.0000
  Ta  Ta45      1.0  0.3688109464322869  0.6247520377277013  0.6248265893179256  1.0000
  Ta  Ta46      1.0  0.25073531546733924  0.4980861486378451  0.74916392221183  1.0000
  Ta  Ta47      1.0  0.3726265257799097  0.6277807870450749  0.873470264622177  1.0000
  Ta  Ta48      1.0  0.24953371597597643  0.751137500391718  0.0006579946743029655  1.0000
  Ta  Ta49      1.0  0.3736172972329952  0.8737528200031528  0.12543424845132728  1.0000
  W   W6        1.0  0.2527834026187415  0.7475961261895769  0.25324690932810234  1.0000
  Ta  Ta50      1.0  0.37297507519630313  0.8728219489251647  0.3719156560109128  1.0000
  Ta  Ta51      1.0  0.2504958178666262  0.7503045316542806  0.4984031085906501  1.0000
  Nb  Nb5       1.0  0.3741639178813285  0.872539916791925  0.6278122056078196  1.0000
  W   W7        1.0  0.25048577347478884  0.7504625484835552  0.7500600490815966  1.0000
  Ta  Ta52      1.0  0.3760459142461667  0.8715078678449538  0.8718360944127423  1.0000
  Ta  Ta53      1.0  0.4996586860104367  0.998665012130337  0.9996869193756535  1.0000
  Ta  Ta54      1.0  0.6249913658216791  0.12556703727548277  0.12591113593218245  1.0000
  Ta  Ta55      1.0  0.4996955872574143  0.00018510005358228558  0.24933481436772678  1.0000
  Ta  Ta56      1.0  0.6253473401250484  0.1257647219344876  0.37504428265908396  1.0000
  Ta  Ta57      1.0  0.4983658390401625  0.9997679675327523  0.49900573714137597  1.0000
  Ta  Ta58      1.0  0.6254234812920352  0.12385949017533249  0.6259473888302451  1.0000
  Ta  Ta59      1.0  0.4988886812713456  0.9992599157267171  0.7503391522701813  1.0000
  Ta  Ta60      1.0  0.6251393040425274  0.12431760987636375  0.8745264440376088  1.0000
  Ta  Ta61      1.0  0.5004390441955855  0.2498311985117607  0.0001850130904665201  1.0000
  Ta  Ta62      1.0  0.625979586171052  0.3747327377681682  0.1252451134080027  1.0000
  Ta  Ta63      1.0  0.5005246956889648  0.2541958320374716  0.2535937629936163  1.0000
  Ta  Ta64      1.0  0.6157888295074673  0.3888152455561741  0.38897754674513296  1.0000
  Ta  Ta65      1.0  0.501497181019764  0.246946904332145  0.5015715924790243  1.0000
  W   W8        1.0  0.6251199611980598  0.3697148480895674  0.6251569256880806  1.0000
  Ta  Ta66      1.0  0.5004627758816814  0.2527689484187705  0.7489838005360205  1.0000
  Ta  Ta67      1.0  0.6270241847203226  0.3742163572771267  0.875178630731922  1.0000
  Ta  Ta68      1.0  0.5012080657699121  0.5025424495145163  0.0007236423232141346  1.0000
  W   W9        1.0  0.626034594516947  0.6264494069128368  0.12582425744909795  1.0000
  Ta  Ta69      1.0  0.5012778814634946  0.5012853943586137  0.24393974806291685  1.0000
  Ta  Ta70      1.0  0.6252718416865206  0.6255176322671968  0.3681285766793541  1.0000
  Ta  Ta71      1.0  0.5663775305797268  0.5633492581240795  0.5655920511245648  1.0000
  Ta  Ta72      1.0  0.5027561114535993  0.502368258552124  0.7593578123670995  1.0000
  Mo  Mo1       1.0  0.624319192975915  0.6246052743047167  0.8802842235791347  1.0000
  Ta  Ta73      1.0  0.5019930718346313  0.7479209768812731  0.9985144770473771  1.0000
  Ta  Ta74      1.0  0.6265203508905759  0.8736035253142398  0.12558068615630963  1.0000
  Ta  Ta75      1.0  0.49994334454599415  0.749078918670234  0.24908874383472085  1.0000
  Ta  Ta76      1.0  0.627653406938471  0.8734132712004539  0.3739159098747394  1.0000
  Ta  Ta77      1.0  0.5011055840940429  0.7569751049790576  0.5012734580852451  1.0000
  Ta  Ta78      1.0  0.6254733311966969  0.879925198587696  0.6250830324129887  1.0000
  Ta  Ta79      1.0  0.510082279244104  0.7367529172635336  0.7398354911771701  1.0000
  Ta  Ta80      1.0  0.6246103352229843  0.8733258659714231  0.8717749923792927  1.0000
  Ta  Ta81      1.0  0.7509497449454311  0.00022075405914668227  0.9991595940328779  1.0000
  Ta  Ta82      1.0  0.8758421416723958  0.12396621864170036  0.1272652065531646  1.0000
  Ta  Ta83      1.0  0.751038089172184  1.7154999653273047e-05  0.25045104348801484  1.0000
  Ta  Ta84      1.0  0.8773118238623957  0.12505184907383035  0.3743658358183963  1.0000
  Ta  Ta85      1.0  0.7511508621203409  0.9997349625343782  0.49926334606984396  1.0000
  Nb  Nb6       1.0  0.8762622077895866  0.12578435838016075  0.623869964916848  1.0000
  Nb  Nb7       1.0  0.7522214794269837  0.0001757462548835295  0.7511416946053349  1.0000
  W   W10       1.0  0.8757920654026554  0.12465195463245035  0.8757216743202145  1.0000
  Ta  Ta86      1.0  0.752229816886367  0.24822264992207532  0.9991965087034715  1.0000
  Ta  Ta87      1.0  0.874859627961641  0.3742116119404225  0.12453429292301224  1.0000
  Ta  Ta88      1.0  0.7473085790563627  0.25332389337921557  0.25375024159940823  1.0000
  Ta  Ta89      1.0  0.8767672880918911  0.37335957084935  0.37531178253030795  1.0000
  Ta  Ta90      1.0  0.7491535242999965  0.25203053209487036  0.5004764404842228  1.0000
  Ta  Ta91      1.0  0.8760384999186466  0.37454607270345325  0.6259039258674343  1.0000
  Ta  Ta92      1.0  0.7503920839648569  0.25053904322130977  0.74992018327129  1.0000
  Ta  Ta93      1.0  0.8726553364250657  0.37729305919982703  0.8723761687786137  1.0000
  Ta  Ta94      1.0  0.7480652971627371  0.502421839647912  0.9986472780887862  1.0000
  Nb  Nb8       1.0  0.8735741531597987  0.6259762555827652  0.1261002489066545  1.0000
  Ta  Ta95      1.0  0.7492325824192037  0.49953246710122134  0.2501088058598325  1.0000
  Ta  Ta96      1.0  0.8742797565797157  0.6285988585613455  0.3748257587536199  1.0000
  Ta  Ta97      1.0  0.7577506092683919  0.5003937086151539  0.5006931890176248  1.0000
  Nb  Nb9       1.0  0.880347087935453  0.6253831713760123  0.6235759874793289  1.0000
  Ta  Ta98      1.0  0.7366019169256486  0.5083643157823615  0.7381962957542955  1.0000
  Ta  Ta99      1.0  0.8727253987607176  0.6238732645208201  0.8716797302941479  1.0000
  Ta  Ta100     1.0  0.7481511704238031  0.7481475231182739  0.9987748639007372  1.0000
  Ta  Ta101     1.0  0.8750969055638879  0.8753327660554399  0.12711587327700957  1.0000
  W   W11       1.0  0.7496879899880088  0.7496565234764468  0.24949798763505143  1.0000
  Ta  Ta102     1.0  0.8734267771209491  0.8705349092310739  0.3764237593015751  1.0000
  Ta  Ta103     1.0  0.7385816464910706  0.7381514753302142  0.5087169951769968  1.0000
  Ta  Ta104     1.0  0.8723973973166057  0.8706659159353332  0.6243390737297418  1.0000
  Ta  Ta105     1.0  0.7386181509812846  0.7376241954132092  0.7422291262436691  1.0000
  Ta  Ta106     1.0  0.871729113186182  0.8720977243492479  0.8728088641118095  1.0000
