data_image0
_chemical_formula_structural       NbMoNbTaWNbTaWTa2WTaWNbTaNbTa3W2NbTa2NbTaNbWTa2WTaW2TaW2Ta2NbMoNbWNbTaWTa2WTaW2TaWTaW2NbTaNb2TaWNb2TaNbWTaWTaWNbTaWTaWTa2WTaWTa4NbTa2NbTaWNb2TaWTaNbTaNbTa4W3Ta3WTaNbTaW2NbW2TaWNbWTa2WTa
_chemical_formula_sum              "Nb27 Mo2 Ta57 W41"
_cell_length_a       12.8
_cell_length_b       12.8
_cell_length_c       12.8
_cell_angle_alpha    90.0
_cell_angle_beta     90.0
_cell_angle_gamma    90.0

_space_group_name_H-M_alt    "P 1"
_space_group_IT_number       1

loop_
  _space_group_symop_operation_xyz
  'x, y, z'

loop_
  _atom_site_type_symbol
  _atom_site_label
  _atom_site_symmetry_multiplicity
  _atom_site_fract_x
  _atom_site_fract_y
  _atom_site_fract_z
  _atom_site_occupancy
  Nb  Nb1       1.0  0.0  0.0  0.0  1.0000
  Mo  Mo1       1.0  0.125  0.125  0.125  1.0000
  Nb  Nb2       1.0  0.0  0.0  0.25  1.0000
  Ta  Ta1       1.0  0.125  0.125  0.37500000000000006  1.0000
  W   W1        1.0  0.0  0.0  0.5  1.0000
  Nb  Nb3       1.0  0.125  0.125  0.625  1.0000
  Ta  Ta2       1.0  0.0  0.0  0.7500000000000001  1.0000
  W   W2        1.0  0.125  0.125  0.8750000000000001  1.0000
  Ta  Ta3       1.0  0.0  0.25  0.0  1.0000
  Ta  Ta4       1.0  0.125  0.37500000000000006  0.125  1.0000
  W   W3        1.0  0.0  0.25  0.25  1.0000
  Ta  Ta5       1.0  0.125  0.37500000000000006  0.37500000000000006  1.0000
  W   W4        1.0  0.0  0.25  0.5  1.0000
  Nb  Nb4       1.0  0.125  0.37500000000000006  0.625  1.0000
  Ta  Ta6       1.0  0.0  0.25  0.7500000000000001  1.0000
  Nb  Nb5       1.0  0.125  0.37500000000000006  0.8750000000000001  1.0000
  Ta  Ta7       1.0  0.0  0.5  0.0  1.0000
  Ta  Ta8       1.0  0.125  0.625  0.125  1.0000
  Ta  Ta9       1.0  0.0  0.5  0.25  1.0000
  W   W5        1.0  0.125  0.625  0.37500000000000006  1.0000
  W   W6        1.0  0.0  0.5  0.5  1.0000
  Nb  Nb6       1.0  0.125  0.625  0.625  1.0000
  Ta  Ta10      1.0  0.0  0.5  0.7500000000000001  1.0000
  Ta  Ta11      1.0  0.125  0.625  0.8750000000000001  1.0000
  Nb  Nb7       1.0  0.0  0.7500000000000001  0.0  1.0000
  Ta  Ta12      1.0  0.125  0.8750000000000001  0.125  1.0000
  Nb  Nb8       1.0  0.0  0.7500000000000001  0.25  1.0000
  W   W7        1.0  0.125  0.8750000000000001  0.37500000000000006  1.0000
  Ta  Ta13      1.0  0.0  0.7500000000000001  0.5  1.0000
  Ta  Ta14      1.0  0.125  0.8750000000000001  0.625  1.0000
  W   W8        1.0  0.0  0.7500000000000001  0.7500000000000001  1.0000
  Ta  Ta15      1.0  0.125  0.8750000000000001  0.8750000000000001  1.0000
  W   W9        1.0  0.25  0.0  0.0  1.0000
  W   W10       1.0  0.37500000000000006  0.125  0.125  1.0000
  Ta  Ta16      1.0  0.25  0.0  0.25  1.0000
  W   W11       1.0  0.37500000000000006  0.125  0.37500000000000006  1.0000
  W   W12       1.0  0.25  0.0  0.5  1.0000
  Ta  Ta17      1.0  0.37500000000000006  0.125  0.625  1.0000
  Ta  Ta18      1.0  0.25  0.0  0.7500000000000001  1.0000
  Nb  Nb9       1.0  0.37500000000000006  0.125  0.8750000000000001  1.0000
  Mo  Mo2       1.0  0.25  0.25  0.0  1.0000
  Nb  Nb10      1.0  0.37500000000000006  0.37500000000000006  0.125  1.0000
  W   W13       1.0  0.25  0.25  0.25  1.0000
  Nb  Nb11      1.0  0.37500000000000006  0.37500000000000006  0.37500000000000006  1.0000
  Ta  Ta19      1.0  0.25  0.25  0.5  1.0000
  W   W14       1.0  0.37500000000000006  0.37500000000000006  0.625  1.0000
  Ta  Ta20      1.0  0.25  0.25  0.7500000000000001  1.0000
  Ta  Ta21      1.0  0.37500000000000006  0.37500000000000006  0.8750000000000001  1.0000
  W   W15       1.0  0.25  0.5  0.0  1.0000
  Ta  Ta22      1.0  0.37500000000000006  0.625  0.125  1.0000
  W   W16       1.0  0.25  0.5  0.25  1.0000
  W   W17       1.0  0.37500000000000006  0.625  0.37500000000000006  1.0000
  Ta  Ta23      1.0  0.25  0.5  0.5  1.0000
  W   W18       1.0  0.37500000000000006  0.625  0.625  1.0000
  Ta  Ta24      1.0  0.25  0.5  0.7500000000000001  1.0000
  W   W19       1.0  0.37500000000000006  0.625  0.8750000000000001  1.0000
  W   W20       1.0  0.25  0.7500000000000001  0.0  1.0000
  Nb  Nb12      1.0  0.37500000000000006  0.8750000000000001  0.125  1.0000
  Ta  Ta25      1.0  0.25  0.7500000000000001  0.25  1.0000
  Nb  Nb13      1.0  0.37500000000000006  0.8750000000000001  0.37500000000000006  1.0000
  Nb  Nb14      1.0  0.25  0.7500000000000001  0.5  1.0000
  Ta  Ta26      1.0  0.37500000000000006  0.8750000000000001  0.625  1.0000
  W   W21       1.0  0.25  0.7500000000000001  0.7500000000000001  1.0000
  Nb  Nb15      1.0  0.37500000000000006  0.8750000000000001  0.8750000000000001  1.0000
  Nb  Nb16      1.0  0.5  0.0  0.0  1.0000
  Ta  Ta27      1.0  0.625  0.125  0.125  1.0000
  Nb  Nb17      1.0  0.5  0.0  0.25  1.0000
  W   W22       1.0  0.625  0.125  0.37500000000000006  1.0000
  Ta  Ta28      1.0  0.5  0.0  0.5  1.0000
  W   W23       1.0  0.625  0.125  0.625  1.0000
  Ta  Ta29      1.0  0.5  0.0  0.7500000000000001  1.0000
  W   W24       1.0  0.625  0.125  0.8750000000000001  1.0000
  Nb  Nb18      1.0  0.5  0.25  0.0  1.0000
  Ta  Ta30      1.0  0.625  0.37500000000000006  0.125  1.0000
  W   W25       1.0  0.5  0.25  0.25  1.0000
  Ta  Ta31      1.0  0.625  0.37500000000000006  0.37500000000000006  1.0000
  W   W26       1.0  0.5  0.25  0.5  1.0000
  Ta  Ta32      1.0  0.5  0.5  0.5  1.0000
  Ta  Ta33      1.0  0.5  0.25  0.7500000000000001  1.0000
  W   W27       1.0  0.625  0.37500000000000006  0.8750000000000001  1.0000
  Ta  Ta34      1.0  0.5  0.5  0.0  1.0000
  W   W28       1.0  0.625  0.625  0.125  1.0000
  Ta  Ta35      1.0  0.5  0.5  0.25  1.0000
  Ta  Ta36      1.0  0.625  0.625  0.37500000000000006  1.0000
  Ta  Ta37      1.0  0.625  0.625  0.625  1.0000
  Ta  Ta38      1.0  0.5  0.5  0.7500000000000001  1.0000
  Nb  Nb19      1.0  0.625  0.625  0.8750000000000001  1.0000
  Ta  Ta39      1.0  0.5  0.7500000000000001  0.0  1.0000
  Ta  Ta40      1.0  0.625  0.8750000000000001  0.125  1.0000
  Nb  Nb20      1.0  0.5  0.7500000000000001  0.25  1.0000
  Ta  Ta41      1.0  0.625  0.8750000000000001  0.37500000000000006  1.0000
  W   W29       1.0  0.5  0.7500000000000001  0.5  1.0000
  Nb  Nb21      1.0  0.625  0.8750000000000001  0.625  1.0000
  Nb  Nb22      1.0  0.5  0.7500000000000001  0.7500000000000001  1.0000
  Ta  Ta42      1.0  0.625  0.8750000000000001  0.8750000000000001  1.0000
  W   W30       1.0  0.7500000000000001  0.0  0.0  1.0000
  Ta  Ta43      1.0  0.8750000000000001  0.125  0.125  1.0000
  Nb  Nb23      1.0  0.7500000000000001  0.0  0.25  1.0000
  Ta  Ta44      1.0  0.8750000000000001  0.125  0.37500000000000006  1.0000
  Nb  Nb24      1.0  0.7500000000000001  0.0  0.5  1.0000
  Ta  Ta45      1.0  0.8750000000000001  0.125  0.625  1.0000
  Ta  Ta46      1.0  0.7500000000000001  0.0  0.7500000000000001  1.0000
  Ta  Ta47      1.0  0.8750000000000001  0.125  0.8750000000000001  1.0000
  Ta  Ta48      1.0  0.7500000000000001  0.25  0.0  1.0000
  W   W31       1.0  0.8750000000000001  0.37500000000000006  0.125  1.0000
  W   W32       1.0  0.7500000000000001  0.25  0.25  1.0000
  W   W33       1.0  0.8750000000000001  0.37500000000000006  0.37500000000000006  1.0000
  Ta  Ta49      1.0  0.7500000000000001  0.25  0.5  1.0000
  Ta  Ta50      1.0  0.8750000000000001  0.37500000000000006  0.625  1.0000
  Ta  Ta51      1.0  0.7500000000000001  0.25  0.7500000000000001  1.0000
  W   W34       1.0  0.8750000000000001  0.37500000000000006  0.8750000000000001  1.0000
  Ta  Ta52      1.0  0.7500000000000001  0.5  0.0  1.0000
  Nb  Nb25      1.0  0.8750000000000001  0.625  0.125  1.0000
  Ta  Ta53      1.0  0.7500000000000001  0.5  0.25  1.0000
  W   W35       1.0  0.8750000000000001  0.625  0.37500000000000006  1.0000
  W   W36       1.0  0.7500000000000001  0.5  0.5  1.0000
  Nb  Nb26      1.0  0.8750000000000001  0.625  0.625  1.0000
  W   W37       1.0  0.7500000000000001  0.5  0.7500000000000001  1.0000
  W   W38       1.0  0.8750000000000001  0.625  0.8750000000000001  1.0000
  Ta  Ta54      1.0  0.7500000000000001  0.7500000000000001  0.0  1.0000
  W   W39       1.0  0.8750000000000001  0.8750000000000001  0.125  1.0000
  Nb  Nb27      1.0  0.7500000000000001  0.7500000000000001  0.25  1.0000
  W   W40       1.0  0.8750000000000001  0.8750000000000001  0.37500000000000006  1.0000
  Ta  Ta55      1.0  0.7500000000000001  0.7500000000000001  0.5  1.0000
  Ta  Ta56      1.0  0.8750000000000001  0.8750000000000001  0.625  1.0000
  W   W41       1.0  0.7500000000000001  0.7500000000000001  0.7500000000000001  1.0000
  Ta  Ta57      1.0  0.8750000000000001  0.8750000000000001  0.8750000000000001  1.0000
