data_image0
_chemical_formula_structural       Ta2MoWMoNb3MoWMoTaWMo2WNb3TaNbMoTaMo3WNbMoTaMoNbTaNbWTaMoTaWNb3MoNbWNbMoTaNb2MoNbWNb4Ta2WNbWNb2WTaW2NbTa3Nb2MoNbMoNbMoWNbMoNb2WMoNb2WTaMoWTaW2MoNbWMoWNbWNbW4NbTa2Nb2TaNbMoNbTa2NbMoWTa3NbTa2
_chemical_formula_sum              "Ta28 Mo26 W28 Nb45"
_cell_length_a       12.8
_cell_length_b       12.8
_cell_length_c       12.8
_cell_angle_alpha    90.0
_cell_angle_beta     90.0
_cell_angle_gamma    90.0

_space_group_name_H-M_alt    "P 1"
_space_group_IT_number       1

loop_
  _space_group_symop_operation_xyz
  'x, y, z'

loop_
  _atom_site_type_symbol
  _atom_site_label
  _atom_site_symmetry_multiplicity
  _atom_site_fract_x
  _atom_site_fract_y
  _atom_site_fract_z
  _atom_site_occupancy
  Ta  Ta1       1.0  0.002128336861636316  0.9992620102053112  0.005195243895151536  1.0000
  Ta  Ta2       1.0  0.12412345843820394  0.13015176225557712  0.13501431226670768  1.0000
  Mo  Mo1       1.0  1.9021731191716217e-05  0.999846840210832  0.25017855553364066  1.0000
  W   W1        1.0  0.12252771060743456  0.12344202439351704  0.37508279697942465  1.0000
  Mo  Mo2       1.0  0.9991485723520994  0.001879736624104191  0.4996849589656255  1.0000
  Nb  Nb1       1.0  0.1254437825146849  0.1248340017203092  0.6204575412030978  1.0000
  Nb  Nb2       1.0  0.0006582394201443328  0.9993875841921243  0.7505623462435642  1.0000
  Nb  Nb3       1.0  0.12275307480273559  0.12954854193473325  0.8737713832589242  1.0000
  Mo  Mo3       1.0  0.9999271895881832  0.24993227306746593  0.0016920265702231472  1.0000
  W   W2        1.0  0.12246587030715142  0.3736961264291927  0.12497067123495456  1.0000
  Mo  Mo4       1.0  0.9977649643056482  0.2500084176039962  0.25156692881546616  1.0000
  Ta  Ta3       1.0  0.12645460394078686  0.3700947211460864  0.3692945621744276  1.0000
  W   W3        1.0  0.0005321789824806836  0.2489120322579089  0.49718479204382265  1.0000
  Mo  Mo5       1.0  0.12529705388711493  0.3734660349845267  0.6248077496668949  1.0000
  Mo  Mo6       1.0  0.9995927876866088  0.24979975908605312  0.7482112489439606  1.0000
  W   W4        1.0  0.12888781882727815  0.3739196229148861  0.8704192491564151  1.0000
  Nb  Nb4       1.0  0.0031835605295158003  0.4982880029217892  0.9980626711091152  1.0000
  Nb  Nb5       1.0  0.12357986071656529  0.6248032836689079  0.12491718694190614  1.0000
  Nb  Nb6       1.0  0.997517597259948  0.5012704968083168  0.24963921817374948  1.0000
  Ta  Ta4       1.0  0.1235247344990212  0.6275539970418392  0.3769397445220016  1.0000
  Nb  Nb7       1.0  0.002925309094400017  0.4968614455538112  0.49915852631534646  1.0000
  Mo  Mo7       1.0  0.11978592581643216  0.6256169823273794  0.6231418427350528  1.0000
  Ta  Ta5       1.0  0.006912517323487585  0.500222587340064  0.7505273831318744  1.0000
  Mo  Mo8       1.0  0.12962486069177565  0.6225290553866599  0.8711485835975218  1.0000
  Mo  Mo9       1.0  0.9999648438615031  0.7506450830518698  0.002161550046440813  1.0000
  Mo  Mo10      1.0  0.12371897842829782  0.8767436682502199  0.1252068521802126  1.0000
  W   W5        1.0  0.9995624891380257  0.7529031145287293  0.24876665901481143  1.0000
  Nb  Nb8       1.0  0.12650297170748256  0.8795111739927193  0.37842920775220035  1.0000
  Mo  Mo11      1.0  0.0008198432157680508  0.7510109160988165  0.4961802542599194  1.0000
  Ta  Ta6       1.0  0.127024618224233  0.8725232433234359  0.6199809594880354  1.0000
  Mo  Mo12      1.0  0.0005812716975731898  0.7511670021739968  0.7497809893640814  1.0000
  Nb  Nb9       1.0  0.12288868597610346  0.8699028688540421  0.8718683271673899  1.0000
  Ta  Ta7       1.0  0.24756746657310033  0.9996498418479436  0.00033819639645540407  1.0000
  Nb  Nb10      1.0  0.3759473317357923  0.12496300385346422  0.12830600297992284  1.0000
  W   W6        1.0  0.2502883600347297  0.9991673755875202  0.251039928233271  1.0000
  Ta  Ta8       1.0  0.372696193068643  0.12733139557018738  0.3734246942852887  1.0000
  Mo  Mo13      1.0  0.24989965440673778  4.712582194181236e-05  0.49865380516044644  1.0000
  Ta  Ta9       1.0  0.37267275684203927  0.12223776558215228  0.6232040796741121  1.0000
  W   W7        1.0  0.2479442026077765  0.9973039408164013  0.7508447594776341  1.0000
  Nb  Nb11      1.0  0.3746478661642729  0.12523752312797756  0.8725767256958594  1.0000
  Nb  Nb12      1.0  0.24793361836898828  0.2510111680760546  0.0006044853746489886  1.0000
  Nb  Nb13      1.0  0.3709798010258808  0.37288465981402735  0.1305355229070195  1.0000
  Mo  Mo14      1.0  0.250849226245186  0.2497332331959108  0.2534841088474266  1.0000
  Nb  Nb14      1.0  0.3792210113234753  0.38061723701285993  0.38512829742183674  1.0000
  W   W8        1.0  0.24595015316471758  0.2503952558327902  0.4985938654072513  1.0000
  Nb  Nb15      1.0  0.3736135844947727  0.3617169682357251  0.6254562216349663  1.0000
  Mo  Mo15      1.0  0.24831102391256993  0.2471054070963698  0.7485940985021656  1.0000
  Ta  Ta10      1.0  0.37479054513387783  0.3736648755558986  0.8686091704931413  1.0000
  Nb  Nb16      1.0  0.24798726368793123  0.49835431933580315  0.9973171574869906  1.0000
  Nb  Nb17      1.0  0.3747854486820437  0.626839708785734  0.12414457955328564  1.0000
  Mo  Mo16      1.0  0.24838094273282554  0.49992755875108374  0.25077763425249855  1.0000
  Nb  Nb18      1.0  0.37094179566325713  0.623562083706812  0.36860832118997544  1.0000
  W   W9        1.0  0.24450026011235643  0.4974463503116008  0.5024965953620742  1.0000
  Nb  Nb19      1.0  0.451834728668536  0.550865290079239  0.5547102596359813  1.0000
  Nb  Nb20      1.0  0.2573553141190653  0.5062425383873173  0.7322051816168086  1.0000
  Nb  Nb21      1.0  0.37683063675764905  0.6233313929575323  0.8734184548831275  1.0000
  Nb  Nb22      1.0  0.2475449502060622  0.7505001324751915  0.998530810317475  1.0000
  Ta  Ta11      1.0  0.3778312792768588  0.8782096056010449  0.12587040231733004  1.0000
  Ta  Ta12      1.0  0.24655460508793736  0.7552091599191879  0.24911223873096305  1.0000
  W   W10       1.0  0.37211079561037674  0.8743950037337388  0.37706556848556394  1.0000
  Nb  Nb23      1.0  0.2641442010979433  0.7340541200361663  0.5123210817169497  1.0000
  W   W11       1.0  0.37419360919418687  0.8810915286914753  0.6232642046636873  1.0000
  Nb  Nb24      1.0  0.2562465326870721  0.7431318721053775  0.7413486868132004  1.0000
  Nb  Nb25      1.0  0.376758740771036  0.8710710139166594  0.8702561728955491  1.0000
  W   W12       1.0  0.499981379332066  0.998297378252234  0.9998197847677739  1.0000
  Ta  Ta13      1.0  0.6253518757339611  0.12223126740187219  0.12839382186077689  1.0000
  W   W13       1.0  0.5007001574999674  0.9976513037893429  0.25026957934874744  1.0000
  W   W14       1.0  0.6264751274006188  0.12495142391287845  0.3726942670158539  1.0000
  Nb  Nb26      1.0  0.5016856718082803  0.997556700865485  0.49291497511532323  1.0000
  Ta  Ta14      1.0  0.6222813126349915  0.12584359238720233  0.6226785703926935  1.0000
  Ta  Ta15      1.0  0.5007434451626771  0.9951425313834618  0.7517718076484193  1.0000
  Ta  Ta16      1.0  0.6278232596090119  0.12249191765292275  0.8783707266948314  1.0000
  Nb  Nb27      1.0  0.5009934848207881  0.24968349332348372  0.0006101267852965614  1.0000
  Nb  Nb28      1.0  0.6286491560483163  0.37138647163012994  0.12616933641269124  1.0000
  Mo  Mo17      1.0  0.5016653170957266  0.25003111745219064  0.25245348864449224  1.0000
  Nb  Nb29      1.0  0.6173266364599636  0.3754896563507498  0.38183667814106637  1.0000
  Mo  Mo18      1.0  0.4983664460655447  0.24582895049086828  0.5003495969133198  1.0000
  Nb  Nb30      1.0  0.6148811051823226  0.3824927344699835  0.6227164991767099  1.0000
  Mo  Mo19      1.0  0.5025030062615509  0.24700484946105158  0.7507521920345506  1.0000
  W   W15       1.0  0.6252291641724294  0.37342794718162553  0.8748595252652102  1.0000
  Nb  Nb31      1.0  0.5012987077357127  0.49844718701216956  0.0011578866789286873  1.0000
  Mo  Mo20      1.0  0.6262450369440226  0.6263045859705674  0.12641693106846535  1.0000
  Nb  Nb32      1.0  0.5008086211782282  0.5007623171381465  0.24780209748276108  1.0000
  Nb  Nb33      1.0  0.6152942020275719  0.6193298539387525  0.3862997940771631  1.0000
  W   W16       1.0  0.6335145373618079  0.6278736921154188  0.625908494960659  1.0000
  Mo  Mo21      1.0  0.5001032087725642  0.4993121579154603  0.7539028360765393  1.0000
  Nb  Nb34      1.0  0.623756806467182  0.6263883659399874  0.871820492942952  1.0000
  Nb  Nb35      1.0  0.5049539269715266  0.752070440497141  0.998422740886104  1.0000
  W   W17       1.0  0.6293397820866696  0.8781780241406676  0.12260255414561312  1.0000
  Ta  Ta17      1.0  0.5048180868166462  0.7536905912301305  0.2530468225723317  1.0000
  Mo  Mo22      1.0  0.6255189616305152  0.8763841734697755  0.372996463630483  1.0000
  W   W18       1.0  0.49726330423164344  0.7554188562097125  0.5007288743951794  1.0000
  Ta  Ta18      1.0  0.6233432420089777  0.8748373733142523  0.6245958427904041  1.0000
  W   W19       1.0  0.49324113921627527  0.7387416047803114  0.7348986398310944  1.0000
  W   W20       1.0  0.623842105413748  0.8740033022279375  0.8735686171909121  1.0000
  Mo  Mo23      1.0  0.7497499873400076  0.0006333867291773397  0.0015925606157978123  1.0000
  Nb  Nb36      1.0  0.874143392084174  0.12557420307618697  0.1290176319715224  1.0000
  W   W21       1.0  0.7498392694096336  0.0005556774567345042  0.2523297047761053  1.0000
  Mo  Mo24      1.0  0.875049815945289  0.1262078025488097  0.37510218424910846  1.0000
  W   W22       1.0  0.7499061793600142  0.001104504764899204  0.49725242061150426  1.0000
  Nb  Nb37      1.0  0.8748115915116215  0.12367636247837051  0.6233513235923215  1.0000
  W   W23       1.0  0.7499206264381559  0.9999040438543254  0.7489706509261523  1.0000
  Nb  Nb38      1.0  0.8748276744591008  0.12375775889294187  0.8773424187461869  1.0000
  W   W24       1.0  0.7519083163310742  0.25070863461708937  0.0022778900624093315  1.0000
  W   W25       1.0  0.8763429209669281  0.3736518439251644  0.12701741436915753  1.0000
  W   W26       1.0  0.7512431197352256  0.25049274111106734  0.2528641614227088  1.0000
  W   W27       1.0  0.8750352778526361  0.37286872706403157  0.37299290560471354  1.0000
  Nb  Nb39      1.0  0.7500676824467478  0.24928326850177165  0.4968231388483007  1.0000
  Ta  Ta19      1.0  0.8786595058793588  0.37205320141174697  0.6231710852448565  1.0000
  Ta  Ta20      1.0  0.7486860766516177  0.25143249642925714  0.7506743786896084  1.0000
  Nb  Nb40      1.0  0.8790248050131808  0.37078893192398454  0.8778312542654132  1.0000
  Nb  Nb41      1.0  0.7506944102428952  0.49987416383643457  0.9998110902040513  1.0000
  Ta  Ta21      1.0  0.8751112720847499  0.6291937751158687  0.12311264638796532  1.0000
  Nb  Nb42      1.0  0.7488256082287242  0.5003066680968625  0.25314546717890896  1.0000
  Mo  Mo25      1.0  0.8738340514085973  0.6258277375870882  0.37353588402790894  1.0000
  Nb  Nb43      1.0  0.7523014815293254  0.5007601233639001  0.5000225459529928  1.0000
  Ta  Ta22      1.0  0.8798987258743829  0.6292742614045234  0.6225401794226526  1.0000
  Ta  Ta23      1.0  0.7522270768986554  0.4995915033583639  0.7511040202754032  1.0000
  Nb  Nb44      1.0  0.8798116030873877  0.6299135765720419  0.8762267827413164  1.0000
  Mo  Mo26      1.0  0.7502407884226802  0.7511677111309194  0.0003280388626370302  1.0000
  W   W28       1.0  0.8744593696317405  0.8763493113822761  0.1260967745875949  1.0000
  Ta  Ta24      1.0  0.7480165355691877  0.7511954757561662  0.251541523029653  1.0000
  Ta  Ta25      1.0  0.8803431388064842  0.8807837886366061  0.37240315290521137  1.0000
  Ta  Ta26      1.0  0.7483400696834903  0.7532815974963989  0.4939942663930251  1.0000
  Nb  Nb45      1.0  0.8779563280643999  0.875909066061775  0.6229951065408947  1.0000
  Ta  Ta27      1.0  0.748566123546047  0.7528384072354668  0.7506733353833448  1.0000
  Ta  Ta28      1.0  0.8718914456876797  0.8758634005110472  0.8812932187628568  1.0000
