data_image0
_chemical_formula_structural       WTaW5TaWTa2W2Ta2W2MoWTaW6Ta2WTaNbTa2W3TaW4TaWTa3MoWTaW2MoTaW2TaWTa6WTaW3MoWMoW2TaWTaWTaWTaWNbTaW2Ta2MoTa2W6Ta4WTaWTaW2TaW2TaWTaWTaWTaW2NbTaWTaW4Ta
_chemical_formula_sum              "W68 Ta50 Mo6 Nb3"
_cell_length_a       12.8
_cell_length_b       12.8
_cell_length_c       12.8
_cell_angle_alpha    90.0
_cell_angle_beta     90.0
_cell_angle_gamma    90.0

_space_group_name_H-M_alt    "P 1"
_space_group_IT_number       1

loop_
  _space_group_symop_operation_xyz
  'x, y, z'

loop_
  _atom_site_type_symbol
  _atom_site_label
  _atom_site_symmetry_multiplicity
  _atom_site_fract_x
  _atom_site_fract_y
  _atom_site_fract_z
  _atom_site_occupancy
  W   W1        1.0  0.9990961689531505  0.9996116138199546  0.0003416379490369135  1.0000
  Ta  Ta1       1.0  0.12634364937658857  0.12426616506922845  0.12571090871431073  1.0000
  W   W2        1.0  9.451066234796094e-05  0.998865184821688  0.2503311225265793  1.0000
  W   W3        1.0  0.12507985063342478  0.12571890622938275  0.3746460618571915  1.0000
  W   W4        1.0  0.9989356725008155  0.0009503519261005718  0.5010526867933391  1.0000
  W   W5        1.0  0.12494869701773283  0.12442139231719275  0.6254386606611829  1.0000
  W   W6        1.0  0.9990958864894565  0.001693408439808219  0.7481635664427132  1.0000
  Ta  Ta2       1.0  0.12610994714987134  0.12680830206626065  0.8734892625954559  1.0000
  W   W7        1.0  0.9999038985680603  0.2521347635979931  0.9984556857470056  1.0000
  Ta  Ta3       1.0  0.12479522603836808  0.3752807110511025  0.1252568862283693  1.0000
  Ta  Ta4       1.0  0.001266328447853877  0.25096592839192955  0.2511255772969486  1.0000
  W   W8        1.0  0.12551648283076638  0.37457001118655997  0.37426357784754233  1.0000
  W   W9        1.0  4.2073950266077776e-05  0.24944899217429073  0.5014352291813284  1.0000
  Ta  Ta5       1.0  0.12451705427010802  0.37493052681894024  0.6267344713396151  1.0000
  Ta  Ta6       1.0  0.9978886731111207  0.250480815876647  0.7499247159092636  1.0000
  W   W10       1.0  0.1258897081053929  0.3757612354969614  0.8747879994333092  1.0000
  W   W11       1.0  0.00016555230960673542  0.49961785571539186  0.00013748358330421232  1.0000
  Mo  Mo1       1.0  0.1255925542016355  0.6254743699850014  0.12385214509676952  1.0000
  W   W12       1.0  0.00019330147202227115  0.5008647324191693  0.24880925232333098  1.0000
  Ta  Ta7       1.0  0.12144760188642774  0.6218585930218926  0.37496720042159826  1.0000
  W   W13       1.0  0.9997293614383544  0.500214070617579  0.501661824953257  1.0000
  W   W14       1.0  0.12414610688632494  0.6240230181987079  0.6261317994183835  1.0000
  W   W15       1.0  0.00020878827794527653  0.49917676520031934  0.7498858421456036  1.0000
  W   W16       1.0  0.1243405252031448  0.622947240572887  0.874729786036581  1.0000
  W   W17       1.0  0.0019004279357615714  0.7488260497210137  0.0021395813577761154  1.0000
  W   W18       1.0  0.12421260996346552  0.8761049613528538  0.12429815321951831  1.0000
  Ta  Ta8       1.0  0.9983114837677712  0.7493380548768669  0.24692052679506904  1.0000
  Ta  Ta9       1.0  0.12306999871347658  0.8775770126869149  0.37401888601892874  1.0000
  W   W19       1.0  0.9969161723470353  0.7493678314158435  0.5004632023192137  1.0000
  Ta  Ta10      1.0  0.12275190207149478  0.8765046671368254  0.6254640239724447  1.0000
  Nb  Nb1       1.0  0.9982158212561121  0.748456743128627  0.7486628034945408  1.0000
  Ta  Ta11      1.0  0.12496950471675719  0.8748025714348174  0.8765426538858523  1.0000
  Ta  Ta12      1.0  0.2522436198239619  0.0004591894048120875  0.9992958920504726  1.0000
  W   W20       1.0  0.3751805880011139  0.12625615837121124  0.12655480206081476  1.0000
  W   W21       1.0  0.25061066372528407  0.0014499524393291924  0.2501702112421149  1.0000
  W   W22       1.0  0.37608729037944266  0.12521865124955853  0.3732457228907054  1.0000
  Ta  Ta13      1.0  0.24996153238546118  0.004084656379549053  0.5007053077255275  1.0000
  W   W23       1.0  0.3760129044550293  0.1253275889441339  0.6272235905099026  1.0000
  W   W24       1.0  0.251391666690742  0.0016632069027092491  0.7498766426776875  1.0000
  W   W25       1.0  0.37521013575015305  0.12681854921730948  0.872758603544927  1.0000
  W   W26       1.0  0.25135227127009985  0.24955437292443544  0.9984291778738029  1.0000
  Ta  Ta14      1.0  0.3741419267455418  0.372417746392528  0.12414073124012825  1.0000
  W   W27       1.0  0.25135638991712733  0.24893699832529345  0.25157748292811155  1.0000
  Ta  Ta15      1.0  0.37816472943440926  0.3757241052815427  0.3776325716356388  1.0000
  Ta  Ta16      1.0  0.249306068077364  0.24786231270671868  0.4990778999721979  1.0000
  Ta  Ta17      1.0  0.3785111450038165  0.3757707502988922  0.6239319471162444  1.0000
  Mo  Mo2       1.0  0.2514392549887907  0.2508598512775716  0.7499566655119877  1.0000
  W   W28       1.0  0.3729603020732231  0.3726853990470047  0.8744256166248146  1.0000
  Ta  Ta18      1.0  0.2473866820048748  0.501921105838447  0.9993147772177386  1.0000
  W   W29       1.0  0.3740882981868113  0.6244133452113748  0.12421557437477279  1.0000
  W   W30       1.0  0.25028857828140727  0.5006664653392577  0.2515305267788819  1.0000
  Mo  Mo3       1.0  0.3782100055790084  0.6220212826763037  0.3785820078943953  1.0000
  Ta  Ta19      1.0  0.24979124028195193  0.5025146276908689  0.50032867379437  1.0000
  W   W31       1.0  0.37981295511943985  0.6219841386755418  0.6224693782376877  1.0000
  W   W32       1.0  0.24963811197413976  0.5003226528863801  0.7493224649991053  1.0000
  Ta  Ta20      1.0  0.37553158955964894  0.6268388631286602  0.8768222038556175  1.0000
  W   W33       1.0  0.24843248451720756  0.7499486282108893  0.0005537014121090815  1.0000
  Ta  Ta21      1.0  0.37477842773961945  0.875044641639629  0.1231708764786835  1.0000
  Ta  Ta22      1.0  0.25053282034546503  0.7462161069354557  0.24836598489511777  1.0000
  Ta  Ta23      1.0  0.3778221703325963  0.8786541399029585  0.37554792165269496  1.0000
  Ta  Ta24      1.0  0.2527481467979764  0.747128260407438  0.5005050160289714  1.0000
  Ta  Ta25      1.0  0.3806153046340758  0.8780853332217577  0.6270098525759799  1.0000
  Ta  Ta26      1.0  0.25255453202490497  0.7473432544489316  0.749432556595706  1.0000
  W   W34       1.0  0.37622708981313474  0.8758374564554606  0.8742358696781677  1.0000
  Ta  Ta27      1.0  0.5009543747862288  0.003955243125166771  0.9972530561958683  1.0000
  W   W35       1.0  0.6235149840593871  0.12613664624105464  0.12623151082417475  1.0000
  W   W36       1.0  0.5003806742044001  0.002047128953720746  0.25072357933805745  1.0000
  W   W37       1.0  0.6235556599880164  0.12583734767042193  0.3751199482581764  1.0000
  Mo  Mo4       1.0  0.5003877859412623  0.9999536270174096  0.4999311068670404  1.0000
  W   W38       1.0  0.62200536546758  0.12482122609983874  0.6244472100981147  1.0000
  Mo  Mo5       1.0  0.4995170933030796  8.117972445335644e-05  0.7496832386133391  1.0000
  W   W39       1.0  0.6233066389332999  0.12418801142874387  0.8744068677609314  1.0000
  W   W40       1.0  0.4981800386914318  0.2481439212376942  0.9981525681380073  1.0000
  Ta  Ta28      1.0  0.6237176545121118  0.3711778762955661  0.12655237843613643  1.0000
  W   W41       1.0  0.5000707916635374  0.24736929061315127  0.25116437284042126  1.0000
  Ta  Ta29      1.0  0.6208427168409582  0.3754284043757647  0.3799417213652646  1.0000
  W   W42       1.0  0.49991184083828694  0.24375996363106767  0.5007956550689131  1.0000
  Ta  Ta30      1.0  0.6212795050757862  0.37740491096918954  0.6201804960675618  1.0000
  W   W43       1.0  0.49984243269635753  0.2478960669694111  0.7495211329406913  1.0000
  Ta  Ta31      1.0  0.6224012182261527  0.3740777499150563  0.8740819437438253  1.0000
  W   W44       1.0  0.4991577053378296  0.498661520854273  0.9995234088904116  1.0000
  Nb  Nb2       1.0  0.6231208903833776  0.6254970318126852  0.12345188823480208  1.0000
  Ta  Ta32      1.0  0.4974972080790932  0.5037870902343529  0.2507716046296401  1.0000
  W   W45       1.0  0.6225591188186232  0.6226866030261659  0.38127235760194106  1.0000
  W   W46       1.0  0.6217355784357694  0.624124992342928  0.6220603477708659  1.0000
  Ta  Ta33      1.0  0.4981809835562784  0.5017635213478726  0.74961168437209  1.0000
  Ta  Ta34      1.0  0.6244929086998346  0.6278363203621228  0.8721088097337304  1.0000
  Mo  Mo6       1.0  0.49876701192526407  0.7506610546152103  0.9992105237555253  1.0000
  Ta  Ta35      1.0  0.623741119804057  0.8769629407678659  0.12365667575561838  1.0000
  Ta  Ta36      1.0  0.49995205322367225  0.7483770955586879  0.25471973272680853  1.0000
  W   W47       1.0  0.6240135179577879  0.8752874182994409  0.3777909899484156  1.0000
  W   W48       1.0  0.5022618554833473  0.7481568654212494  0.5007626254394433  1.0000
  W   W49       1.0  0.6245854542324178  0.873445445324228  0.6250483926229358  1.0000
  W   W50       1.0  0.5015761630937937  0.7507336344211885  0.7471380854370352  1.0000
  W   W51       1.0  0.6228660749670165  0.8747322430216655  0.8728671642581854  1.0000
  W   W52       1.0  0.7491733586992328  0.00024297532845155153  0.9991446749211046  1.0000
  Ta  Ta37      1.0  0.8756628654694028  0.12422658805942666  0.12344696646897929  1.0000
  Ta  Ta38      1.0  0.7487726782831976  0.9993224767991672  0.25063030179382706  1.0000
  Ta  Ta39      1.0  0.8755890552524414  0.1250248356836423  0.376728025554309  1.0000
  Ta  Ta40      1.0  0.7484713070627368  0.9984809350550352  0.5016213529921386  1.0000
  W   W53       1.0  0.8766343483219058  0.12502316612381115  0.6240274913874221  1.0000
  Ta  Ta41      1.0  0.7481767631145592  0.00034929836784352534  0.7492377300570746  1.0000
  W   W54       1.0  0.8761728216141217  0.12439147101028572  0.8752387135297773  1.0000
  Ta  Ta42      1.0  0.7507848569330129  0.24722635538377477  0.9985881995913389  1.0000
  W   W55       1.0  0.8762957222912262  0.374716341216581  0.12487768833386498  1.0000
  W   W56       1.0  0.7484910659446999  0.2498191791117381  0.25135564772951413  1.0000
  Ta  Ta43      1.0  0.8768715389154763  0.3745743211060395  0.3768444474562055  1.0000
  W   W57       1.0  0.748833509010629  0.24923502798652936  0.5011794044846161  1.0000
  W   W58       1.0  0.8748268978556467  0.375603209704346  0.6253013277962737  1.0000
  Ta  Ta44      1.0  0.7505296897223497  0.24886488231502873  0.7478823032142392  1.0000
  W   W59       1.0  0.8774554850473104  0.37574692680521493  0.8745816857254463  1.0000
  Ta  Ta45      1.0  0.7531976184430268  0.49880453151359117  0.999605134800023  1.0000
  W   W60       1.0  0.8772342823221034  0.6239706693292599  0.12480931911662066  1.0000
  Ta  Ta46      1.0  0.7514969129980463  0.5015465036664362  0.2512257407059436  1.0000
  W   W61       1.0  0.8757649916132614  0.6256636163779108  0.37702126537025954  1.0000
  Ta  Ta47      1.0  0.7523226821949025  0.5044526890488843  0.5015971136820438  1.0000
  W   W62       1.0  0.8747264811068389  0.6250730635075884  0.6245976685297371  1.0000
  W   W63       1.0  0.7506206847864949  0.5001544624428033  0.7474952116956015  1.0000
  Nb  Nb3       1.0  0.8768939816678994  0.6239447484634418  0.8734467484322186  1.0000
  Ta  Ta48      1.0  0.752806554739045  0.7521300503716855  0.0001286349954352946  1.0000
  W   W64       1.0  0.8770969779932941  0.8760060306136924  0.12437739295711271  1.0000
  Ta  Ta49      1.0  0.7503034102196815  0.7498253408386201  0.2544989760351055  1.0000
  W   W65       1.0  0.8760097405016681  0.8745814337034103  0.3772542265363102  1.0000
  W   W66       1.0  0.7483715449096362  0.7499022800199616  0.5009659089419085  1.0000
  W   W67       1.0  0.874484707619217  0.8741905572619624  0.6233901054848254  1.0000
  W   W68       1.0  0.7479750219468688  0.7497373844052997  0.7455004718636792  1.0000
  Ta  Ta50      1.0  0.8754915572115357  0.8770836412094374  0.8749655756610353  1.0000
