data_image0
_chemical_formula_structural       Nb5TaNb8TaNb2WNb4WNb6WNbMoNbMoNb42MoNb3WNb5TaNb6TaNbWNb7MoTaNb9TaNb7TaNb4
_chemical_formula_sum              "Nb111 Ta7 W5 Mo4"
_cell_length_a       12.8
_cell_length_b       12.8
_cell_length_c       12.8
_cell_angle_alpha    90.0
_cell_angle_beta     90.0
_cell_angle_gamma    90.0

_space_group_name_H-M_alt    "P 1"
_space_group_IT_number       1

loop_
  _space_group_symop_operation_xyz
  'x, y, z'

loop_
  _atom_site_type_symbol
  _atom_site_label
  _atom_site_symmetry_multiplicity
  _atom_site_fract_x
  _atom_site_fract_y
  _atom_site_fract_z
  _atom_site_occupancy
  Nb  Nb1       1.0  0.00026837257423039166  0.999444054239565  0.9987198906994431  1.0000
  Nb  Nb2       1.0  0.12519574760579358  0.12478416292737968  0.12480985048104423  1.0000
  Nb  Nb3       1.0  0.0011707495637368658  0.001122649738958792  0.25022440965521975  1.0000
  Nb  Nb4       1.0  0.12813834446547387  0.12794964988486307  0.37804971324160774  1.0000
  Nb  Nb5       1.0  0.0010692542587844452  0.9998614347082728  0.5008494418642894  1.0000
  Ta  Ta1       1.0  0.12772057227513683  0.1259997004786996  0.6248811162729372  1.0000
  Nb  Nb6       1.0  0.0018751436871910566  0.9993386529752448  0.7501567119614255  1.0000
  Nb  Nb7       1.0  0.1274554068712302  0.12646782309653337  0.8726214088432522  1.0000
  Nb  Nb8       1.0  0.000982747358809527  0.24957774900479124  0.9990247137342504  1.0000
  Nb  Nb9       1.0  0.12482015287703423  0.37637760778941315  0.12447856747116655  1.0000
  Nb  Nb10      1.0  0.0008724110703513802  0.2499738974824722  0.2506009992887114  1.0000
  Nb  Nb11      1.0  0.127698105506392  0.37422772706223273  0.37744023085135725  1.0000
  Nb  Nb12      1.0  0.0005008090084538757  0.24932235553996046  0.4995595454991043  1.0000
  Nb  Nb13      1.0  0.12026600621065442  0.37536770499769784  0.6256089453145596  1.0000
  Ta  Ta2       1.0  0.9997524512153205  0.25104522342239566  0.751204208093036  1.0000
  Nb  Nb14      1.0  0.1270381266842303  0.37573935635417677  0.873043151365508  1.0000
  Nb  Nb15      1.0  0.0011394915543988552  0.5008541555606837  0.9982908217958242  1.0000
  W   W1        1.0  0.1252087347356124  0.6248740901824197  0.12404194061916703  1.0000
  Nb  Nb16      1.0  0.001265783875882083  0.49985641482341386  0.24961045967991524  1.0000
  Nb  Nb17      1.0  0.12663431537901748  0.6226941222835124  0.3757161011920751  1.0000
  Nb  Nb18      1.0  0.0011898085253535015  0.5004294941062741  0.5006790868619203  1.0000
  Nb  Nb19      1.0  0.12629065985981425  0.623694756276487  0.6261778482911877  1.0000
  W   W2        1.0  0.0006398394528780217  0.500227680668692  0.7511456731604992  1.0000
  Nb  Nb20      1.0  0.12714066670881233  0.6224911742209517  0.8732787572908802  1.0000
  Nb  Nb21      1.0  0.0020705752780920735  0.7497593172527851  0.9990328622377646  1.0000
  Nb  Nb22      1.0  0.12540916834999327  0.873993430822278  0.12440197593280275  1.0000
  Nb  Nb23      1.0  0.0017358793942453827  0.748841575001557  0.2490529109374401  1.0000
  Nb  Nb24      1.0  0.12475899591214515  0.8754403656916154  0.37567356443109656  1.0000
  Nb  Nb25      1.0  0.00184941334727802  0.7505945748169557  0.5012118124549765  1.0000
  W   W3        1.0  0.12495507644521572  0.8753552256538301  0.6258593644666093  1.0000
  Nb  Nb26      1.0  0.002090844492835164  0.7498168895164665  0.7506379864607048  1.0000
  Mo  Mo1       1.0  0.12486144922817057  0.8754582015366981  0.8743019935401526  1.0000
  Nb  Nb27      1.0  0.2500358631913304  0.0004393215342887579  0.9994953142938947  1.0000
  Mo  Mo2       1.0  0.37513605603482464  0.12501959067282992  0.12451419252332058  1.0000
  Nb  Nb28      1.0  0.2511260078790074  0.0013017125606373456  0.2495461704858537  1.0000
  Nb  Nb29      1.0  0.3755274595090037  0.1277558936991641  0.37702532209253486  1.0000
  Nb  Nb30      1.0  0.2491915476396769  0.999797405110166  0.4995692379850872  1.0000
  Nb  Nb31      1.0  0.37573812179576005  0.12180220137963327  0.6239604389668933  1.0000
  Nb  Nb32      1.0  0.24903159201314376  0.9992520958147214  0.750836561382688  1.0000
  Nb  Nb33      1.0  0.3755115376338916  0.1273975397621564  0.8731482108530004  1.0000
  Nb  Nb34      1.0  0.2505096555028163  0.24836375541681108  0.000515556554889569  1.0000
  Nb  Nb35      1.0  0.37594241687486957  0.3748625479033945  0.12499665827822415  1.0000
  Nb  Nb36      1.0  0.250441567959152  0.2488647676242997  0.24954017459826813  1.0000
  Nb  Nb37      1.0  0.3764376149161566  0.37391103412555576  0.3716317860777524  1.0000
  Nb  Nb38      1.0  0.2608229421368078  0.2591962272284503  0.5089932478272939  1.0000
  Nb  Nb39      1.0  0.490791907656289  0.4893766190547452  0.5091985271927877  1.0000
  Nb  Nb40      1.0  0.2562443193957  0.2568003380448046  0.7440541802104421  1.0000
  Nb  Nb41      1.0  0.3752259517282938  0.3756632172644317  0.8798888539406426  1.0000
  Nb  Nb42      1.0  0.2505573628286777  0.5009336710211114  0.0006056393291474113  1.0000
  Nb  Nb43      1.0  0.37371599402534794  0.6248124768348816  0.12446628006330056  1.0000
  Nb  Nb44      1.0  0.24926833103905963  0.500315565695104  0.25085530456347205  1.0000
  Nb  Nb45      1.0  0.37576163318780137  0.6223804573174135  0.3773994879801357  1.0000
  Nb  Nb46      1.0  0.25613373459376526  0.4940202426417176  0.5067235626042297  1.0000
  Nb  Nb47      1.0  0.37451469853627684  0.6289319675156625  0.6253524421009671  1.0000
  Nb  Nb48      1.0  0.2556810094039677  0.49292535499057766  0.7426692753980956  1.0000
  Nb  Nb49      1.0  0.3754541160971608  0.6223604166219613  0.8735262950700068  1.0000
  Nb  Nb50      1.0  0.24841876882574745  0.7502260790049771  0.9990157388195332  1.0000
  Nb  Nb51      1.0  0.3752065163547609  0.8756708595571595  0.12484089156273344  1.0000
  Nb  Nb52      1.0  0.24953183471008042  0.7489591523539473  0.24996325922033463  1.0000
  Nb  Nb53      1.0  0.3754343981128383  0.8747023386505461  0.3747714160085818  1.0000
  Nb  Nb54      1.0  0.24885747007173872  0.7496668976691211  0.4998325057180536  1.0000
  Nb  Nb55      1.0  0.37335461209805054  0.8755514789246932  0.6243845610414546  1.0000
  Nb  Nb56      1.0  0.24868635220134008  0.7515442334379162  0.7507634353400022  1.0000
  Nb  Nb57      1.0  0.3748251606664043  0.8754858349200522  0.8758444770528209  1.0000
  Nb  Nb58      1.0  0.5002856292753461  0.0019218747914705725  0.00024725823685018127  1.0000
  Nb  Nb59      1.0  0.6260746799066331  0.1255052417449892  0.12292771840828806  1.0000
  Nb  Nb60      1.0  0.4990417122380628  0.00169309998303231  0.24953025902909032  1.0000
  Nb  Nb61      1.0  0.6222624445789113  0.12759782143937273  0.37790561458247934  1.0000
  Nb  Nb62      1.0  0.5001627632615304  0.0007859122703962521  0.49927412175987174  1.0000
  Nb  Nb63      1.0  0.6223732043043488  0.12765820277705264  0.6247062215777123  1.0000
  Nb  Nb64      1.0  0.5001646553173879  0.0008723448685014878  0.7507507074684855  1.0000
  Nb  Nb65      1.0  0.6238325756594556  0.12792391315859686  0.8736683020083885  1.0000
  Nb  Nb66      1.0  0.4997710658019799  0.2500282853389409  0.9997413096859614  1.0000
  Nb  Nb67      1.0  0.6256397958372806  0.3742522613055854  0.12348039912988669  1.0000
  Nb  Nb68      1.0  0.49962469823278505  0.24832833812796662  0.2498908984934203  1.0000
  Nb  Nb69      1.0  0.621758188704947  0.3740648326269358  0.3773232388684394  1.0000
  Mo  Mo3       1.0  0.4950614621225274  0.25447450292679147  0.5047264844101378  1.0000
  Nb  Nb70      1.0  0.6277811867518056  0.37363836319051125  0.6240455355075827  1.0000
  Nb  Nb71      1.0  0.49116297789762614  0.25865300217240755  0.7400818808907621  1.0000
  Nb  Nb72      1.0  0.6226843136347635  0.37488610767142877  0.8738940387521366  1.0000
  W   W4        1.0  0.5001641863797626  0.49967642879294283  0.9996149154864356  1.0000
  Nb  Nb73      1.0  0.62410836506689  0.624619512487078  0.12355916470389597  1.0000
  Nb  Nb74      1.0  0.5005029855357019  0.5003572120705844  0.24908757206079077  1.0000
  Nb  Nb75      1.0  0.6221253128533859  0.6221788883791007  0.37769562518799316  1.0000
  Nb  Nb76      1.0  0.6225621917505937  0.621812643641942  0.6255208503661926  1.0000
  Nb  Nb77      1.0  0.4929726178605954  0.4938036098115531  0.7453310426486947  1.0000
  Ta  Ta3       1.0  0.6227267852814903  0.6217538117365975  0.873707898760287  1.0000
  Nb  Nb78      1.0  0.4991562759200991  0.7481564629146419  0.99925688034704  1.0000
  Nb  Nb79      1.0  0.6249482293150339  0.8755480499407187  0.12417108114320348  1.0000
  Nb  Nb80      1.0  0.4997796622848241  0.7495785162400704  0.25069992641139205  1.0000
  Nb  Nb81      1.0  0.6253198159001354  0.8752299161610133  0.37461466891921225  1.0000
  Nb  Nb82      1.0  0.5004861984259404  0.7489164946915959  0.500286694818368  1.0000
  Nb  Nb83      1.0  0.6249311365791245  0.8761046441198134  0.6247790709283134  1.0000
  Ta  Ta4       1.0  0.49990917513920347  0.7507166242674034  0.7498257307000932  1.0000
  Nb  Nb84      1.0  0.625627019847034  0.8755333530979976  0.8763999598151657  1.0000
  W   W5        1.0  0.7496148076898423  0.0005754698035082214  0.9996057073951368  1.0000
  Nb  Nb85      1.0  0.8737706385146092  0.125904111109108  0.1231814810918855  1.0000
  Nb  Nb86      1.0  0.7488148245043325  0.0010584174230691239  0.24890468246707584  1.0000
  Nb  Nb87      1.0  0.8749437075280585  0.12434113493639425  0.37458019221772165  1.0000
  Nb  Nb88      1.0  0.749731246634545  0.000631490376224427  0.5004756358360098  1.0000
  Nb  Nb89      1.0  0.8750656287739077  0.12499986254301305  0.6255816154527021  1.0000
  Nb  Nb90      1.0  0.7494565469218496  0.0004471261064271478  0.7513070815748923  1.0000
  Nb  Nb91      1.0  0.8733328816889008  0.12472247142680944  0.8766226971392939  1.0000
  Mo  Mo4       1.0  0.7490255830851721  0.24908977295204504  0.9990061030189341  1.0000
  Ta  Ta5       1.0  0.8741181200231968  0.3737275995291028  0.12373760852284428  1.0000
  Nb  Nb92      1.0  0.7493642580248511  0.24999535546016804  0.2507785471924687  1.0000
  Nb  Nb93      1.0  0.8751439441343095  0.37568053441552945  0.37478816699141543  1.0000
  Nb  Nb94      1.0  0.7493782858906305  0.24969469621132784  0.4995191857482859  1.0000
  Nb  Nb95      1.0  0.8751382961601806  0.3757850172283334  0.6251238759061563  1.0000
  Nb  Nb96      1.0  0.7493239328251526  0.2498604160689402  0.7506746876452786  1.0000
  Nb  Nb97      1.0  0.87391410428483  0.3748687569280603  0.8764594481019204  1.0000
  Nb  Nb98      1.0  0.7481523258484818  0.4997140502061168  0.9999116582409604  1.0000
  Nb  Nb99      1.0  0.8765770829744696  0.6243777912985239  0.12493550793799035  1.0000
  Nb  Nb100     1.0  0.7491647514252338  0.4999920402879899  0.2505691622550559  1.0000
  Ta  Ta6       1.0  0.8752795739011264  0.6255760027083093  0.37533991828028856  1.0000
  Nb  Nb101     1.0  0.7485983884012827  0.5002256953339741  0.49950668361630485  1.0000
  Nb  Nb102     1.0  0.8760868506587299  0.6244435955431313  0.6254437380944745  1.0000
  Nb  Nb103     1.0  0.7508287287957781  0.49940799369565636  0.7496275106962391  1.0000
  Nb  Nb104     1.0  0.8747435062479146  0.6246134731129859  0.8742209417243907  1.0000
  Nb  Nb105     1.0  0.7502691739877637  0.7509865305731976  0.9998243805128618  1.0000
  Nb  Nb106     1.0  0.8745837942592466  0.8759864389590832  0.12499801068885388  1.0000
  Nb  Nb107     1.0  0.7488531741312843  0.7487599463053495  0.2500648630204614  1.0000
  Ta  Ta7       1.0  0.8747564566626126  0.8744228286446423  0.374605508513138  1.0000
  Nb  Nb108     1.0  0.7488082112518164  0.7494662043408296  0.500773571029442  1.0000
  Nb  Nb109     1.0  0.8763928725268679  0.8748031682823049  0.6251113813168059  1.0000
  Nb  Nb110     1.0  0.7489241847314339  0.7497093504304503  0.7492885348386775  1.0000
  Nb  Nb111     1.0  0.8746610844646542  0.8755898771331895  0.8753717817837464  1.0000
