data_image0
_chemical_formula_structural       TaW3Ta2WTa2NbTaW2Ta3NbW5MoWTaNbWTaWMoTa2NbW3NbW4TaWNbWTaWNb2TaW3TaMoTa2W2TaWTaWTaNbWNb2WTaWNbWTaNb2TaWTa2WTa3W3MoTaW2MoWTaW2Ta2WTa2NbTaW3Ta3MoNb3TaNb2WNb2WTa5Nb2
_chemical_formula_sum              "Ta46 W51 Nb24 Mo6"
_cell_length_a       12.8
_cell_length_b       12.8
_cell_length_c       12.8
_cell_angle_alpha    90.0
_cell_angle_beta     90.0
_cell_angle_gamma    90.0

_space_group_name_H-M_alt    "P 1"
_space_group_IT_number       1

loop_
  _space_group_symop_operation_xyz
  'x, y, z'

loop_
  _atom_site_type_symbol
  _atom_site_label
  _atom_site_symmetry_multiplicity
  _atom_site_fract_x
  _atom_site_fract_y
  _atom_site_fract_z
  _atom_site_occupancy
  Ta  Ta1       1.0  0.0006973228422850766  0.00033587728677224934  0.0019518955605791948  1.0000
  W   W1        1.0  0.12629927057626475  0.12505353542754333  0.12682316449852937  1.0000
  W   W2        1.0  0.0012955451612630027  0.0011200314550647594  0.25117673867425716  1.0000
  W   W3        1.0  0.12660834769294607  0.1257285283266031  0.3743323961117892  1.0000
  Ta  Ta2       1.0  0.0018792125196056585  0.0004951851465432216  0.4990206314038797  1.0000
  Ta  Ta3       1.0  0.12857884642699213  0.12558368378049992  0.6243788985484244  1.0000
  W   W4        1.0  0.0008314033998001804  0.9989534313574876  0.7485132280018085  1.0000
  Ta  Ta4       1.0  0.1286162631773659  0.12509922120130032  0.8738727644837985  1.0000
  Ta  Ta5       1.0  0.0016382158318606268  0.25174668094764363  0.0021555451667824403  1.0000
  Nb  Nb1       1.0  0.12725933637397308  0.37513911016232815  0.12912252653370837  1.0000
  Ta  Ta6       1.0  0.0021105376742169392  0.2488384574015058  0.2526647438110564  1.0000
  W   W5        1.0  0.12632027088727094  0.37530130599500217  0.3768796335493377  1.0000
  W   W6        1.0  0.0013532176670310488  0.2503745469481118  0.4997961980571728  1.0000
  Ta  Ta7       1.0  0.1270651985959716  0.3791742815508542  0.6232706536741304  1.0000
  Ta  Ta8       1.0  0.0019726015462911235  0.25054008647918674  0.748726442434319  1.0000
  Ta  Ta9       1.0  0.12872694872368629  0.37871734134872265  0.8711550873973707  1.0000
  Nb  Nb2       1.0  0.0013013387932453867  0.500355124173719  0.0014168052244511557  1.0000
  W   W7        1.0  0.1254865086065993  0.625259179243653  0.12848823310482904  1.0000
  W   W8        1.0  0.0023871236917357526  0.49973776241458406  0.25062724292390415  1.0000
  W   W9        1.0  0.1272140080015017  0.6236940944207693  0.3749274844281361  1.0000
  W   W10       1.0  0.002633734717413635  0.5015607626251104  0.4999964066806528  1.0000
  W   W11       1.0  0.12543170788333233  0.6241756417554858  0.6240680282084932  1.0000
  Mo  Mo1       1.0  0.9999467421747932  0.49948282125062  0.7486792533109442  1.0000
  W   W12       1.0  0.12750024559036616  0.6244053332013975  0.8715318873889599  1.0000
  Ta  Ta10      1.0  0.0020400721354944347  0.7482068051071866  0.9992198419684978  1.0000
  Nb  Nb3       1.0  0.12614613520347603  0.8753410369883181  0.12870923381495863  1.0000
  W   W13       1.0  0.001573921386385088  0.7492219698097246  0.25022993064456595  1.0000
  Ta  Ta11      1.0  0.12655984054183542  0.8723871255003978  0.3747726544167517  1.0000
  W   W14       1.0  0.00160766959619163  0.7495189831435743  0.5017593033757932  1.0000
  Mo  Mo2       1.0  0.12524441862911873  0.8750866300671057  0.6244000247409015  1.0000
  Ta  Ta12      1.0  0.003718284918072367  0.7486456118540614  0.7466021747041114  1.0000
  Ta  Ta13      1.0  0.1279941892628986  0.8769918250441779  0.8709062346705365  1.0000
  Nb  Nb4       1.0  0.25239345395184176  0.0011025091956500415  0.003183376252791415  1.0000
  W   W15       1.0  0.37312287331673777  0.12635384856812956  0.125017542312225  1.0000
  W   W16       1.0  0.25120677574417444  0.0011979306748560734  0.25054000997977866  1.0000
  W   W17       1.0  0.3722583244299666  0.12438191471456037  0.3757904241579116  1.0000
  Nb  Nb5       1.0  0.2520917504032415  0.0005808961528903086  0.4986625775447029  1.0000
  W   W18       1.0  0.37415414168639094  0.12389380479455828  0.6256438533806747  1.0000
  W   W19       1.0  0.2528893211069393  0.9989472615708173  0.7484886821853836  1.0000
  W   W20       1.0  0.3738906206484558  0.12516324744532176  0.8734432046518948  1.0000
  W   W21       1.0  0.2506722355971415  0.24897745035575625  0.0012855638118364793  1.0000
  Ta  Ta14      1.0  0.37661584499250444  0.3767179222602455  0.12656205817033567  1.0000
  W   W22       1.0  0.2503936682152785  0.24742977349073852  0.2511113549858056  1.0000
  Nb  Nb6       1.0  0.37183667596660697  0.37786903918540754  0.3747050786990681  1.0000
  W   W23       1.0  0.2490497348402854  0.25007271668512143  0.4981038983588351  1.0000
  Ta  Ta15      1.0  0.37277073103633956  0.37909506840914703  0.6250320835646984  1.0000
  W   W24       1.0  0.2516659076754806  0.24843917241952734  0.7484340375401395  1.0000
  Nb  Nb7       1.0  0.37344418701591114  0.37380920676759766  0.8753243947829117  1.0000
  Nb  Nb8       1.0  0.2503811568717714  0.5013930829129309  0.0026647086627111256  1.0000
  Ta  Ta16      1.0  0.3762557104900868  0.6278791795973271  0.1280200883483414  1.0000
  W   W25       1.0  0.24947378461604497  0.5014839898369374  0.2521217249862585  1.0000
  W   W26       1.0  0.3697625597479331  0.6279793472033307  0.37650953681651805  1.0000
  W   W27       1.0  0.2491206095954522  0.5018899080182011  0.4975676786180389  1.0000
  Ta  Ta17      1.0  0.3728791874204669  0.6266971882525624  0.6222517764771893  1.0000
  Mo  Mo3       1.0  0.25236952706232607  0.5019021529976913  0.7483840405888749  1.0000
  Ta  Ta18      1.0  0.3759830969240277  0.6236444782096702  0.8730861587822315  1.0000
  Ta  Ta19      1.0  0.2483804772534047  0.7492786929260169  0.0004594195938289781  1.0000
  W   W28       1.0  0.37618682759397615  0.8723309380626977  0.12760274178144196  1.0000
  W   W29       1.0  0.25076009921951037  0.7494498367431085  0.2503684598259412  1.0000
  Ta  Ta20      1.0  0.3762925408726406  0.8697680773507002  0.37595764556108185  1.0000
  W   W30       1.0  0.2460333727502455  0.7485488887133472  0.5018101330414162  1.0000
  Ta  Ta21      1.0  0.37610721537723657  0.8731966075954474  0.6219106797508902  1.0000
  W   W31       1.0  0.24993671405823623  0.7504042116713822  0.7490422471197422  1.0000
  Ta  Ta22      1.0  0.3766115783600078  0.8754287628447961  0.8748318216932671  1.0000
  Nb  Nb9       1.0  0.4999055635067596  0.0022614431303014195  0.9994368098918889  1.0000
  W   W32       1.0  0.6244357665573066  0.12567181414633882  0.12435166260243206  1.0000
  Nb  Nb10      1.0  0.4956216789425704  0.9983471907638355  0.250173527074167  1.0000
  Nb  Nb11      1.0  0.6233350509759398  0.12413284359818527  0.3734583391607293  1.0000
  W   W33       1.0  0.4995411564062918  2.010372228697109e-05  0.5015860072381038  1.0000
  Ta  Ta23      1.0  0.6235798286661427  0.12469067811186774  0.6270641836890366  1.0000
  W   W34       1.0  0.49915701440169963  0.999370411808577  0.7489793946851097  1.0000
  Nb  Nb12      1.0  0.6254372424794995  0.12561260241493333  0.877459608612883  1.0000
  W   W35       1.0  0.4981463244318632  0.24851575259747793  5.032618951161851e-05  1.0000
  Ta  Ta24      1.0  0.6245192018897658  0.37448385132632445  0.12448328178332713  1.0000
  Nb  Nb13      1.0  0.49777315609458533  0.2486733522210906  0.2486353486436185  1.0000
  Nb  Nb14      1.0  0.6248186584105817  0.37127525802598677  0.3751284905735441  1.0000
  Ta  Ta25      1.0  0.49569647114302534  0.24925723763218305  0.5009141730777021  1.0000
  W   W36       1.0  0.623570209131963  0.3762015502624105  0.6232154496514285  1.0000
  Ta  Ta26      1.0  0.49754865324563885  0.2490794607550334  0.7498376063043743  1.0000
  Ta  Ta27      1.0  0.6239448553932657  0.3752024139493931  0.8745725340243682  1.0000
  W   W37       1.0  0.49891304405203507  0.49860938519415254  0.999298790773549  1.0000
  Ta  Ta28      1.0  0.6211549099393938  0.6267643381921127  0.1163964651598861  1.0000
  Ta  Ta29      1.0  0.5049264246687293  0.5092966565143563  0.2578448917387345  1.0000
  Ta  Ta30      1.0  0.5054748033842974  0.5078901829369915  0.4959048025847584  1.0000
  W   W38       1.0  0.621742963175441  0.6248882536594733  0.6292310407316403  1.0000
  W   W39       1.0  0.5010724623700202  0.4994925289009761  0.7482955823490461  1.0000
  W   W40       1.0  0.6224784427868206  0.6259240355720707  0.8758670829881404  1.0000
  Mo  Mo4       1.0  0.49795214504462776  0.7503311571080523  0.0003563843363694987  1.0000
  Ta  Ta31      1.0  0.6213749856783944  0.8719109351644906  0.12388489328547014  1.0000
  W   W41       1.0  0.5042662360495591  0.7448822214499019  0.2568033451740987  1.0000
  W   W42       1.0  0.6217921701535309  0.8764571375254417  0.3758068011357482  1.0000
  Mo  Mo5       1.0  0.5027620477331164  0.7455090217361647  0.4949593711055536  1.0000
  W   W43       1.0  0.6216255535203418  0.8730516530581034  0.6212000737323613  1.0000
  Ta  Ta32      1.0  0.502385290324679  0.7508090648132759  0.7483010083944407  1.0000
  W   W44       1.0  0.6239842237479112  0.8736689487754514  0.8763199016113931  1.0000
  W   W45       1.0  0.7489236247988452  0.9992552422289162  0.0012819925125373403  1.0000
  Ta  Ta33      1.0  0.8729083215730649  0.12593250014129942  0.1257909414708788  1.0000
  Ta  Ta34      1.0  0.7486668285865651  0.0006508887999369525  0.2504018712664923  1.0000
  W   W46       1.0  0.877400176903166  0.12451970716393986  0.37570018824242335  1.0000
  Ta  Ta35      1.0  0.7480994736256531  0.9978269200410659  0.49862589864569373  1.0000
  Ta  Ta36      1.0  0.8756194932058113  0.12552185117116144  0.626212539796006  1.0000
  Nb  Nb15      1.0  0.7462748941174134  0.9966685250732125  0.7498795309702332  1.0000
  Ta  Ta37      1.0  0.8732125528793799  0.12518780815666258  0.8739239165552914  1.0000
  W   W47       1.0  0.7498578579486924  0.249777358016655  0.002621276495187206  1.0000
  W   W48       1.0  0.8731617601415976  0.3760673505655052  0.12800887259778926  1.0000
  W   W49       1.0  0.7518842268591858  0.25119962221837855  0.2493650969465648  1.0000
  Ta  Ta38      1.0  0.8785717458160347  0.3763002939765406  0.375368204703575  1.0000
  Ta  Ta39      1.0  0.75060853665531  0.24948496781000112  0.49868839224613054  1.0000
  Ta  Ta40      1.0  0.8756706294831079  0.37890132773329255  0.6233477964754357  1.0000
  Mo  Mo6       1.0  0.7494940046559316  0.250310076399435  0.7492273710664656  1.0000
  Nb  Nb16      1.0  0.8736679850649645  0.37277092371861337  0.8750308271766126  1.0000
  Nb  Nb17      1.0  0.7504363753506105  0.5004270586837898  0.9997386987328951  1.0000
  Nb  Nb18      1.0  0.8748908853117132  0.6254610025611907  0.1276692372611005  1.0000
  Ta  Ta41      1.0  0.7463776600506346  0.5051168028951919  0.2551600525293882  1.0000
  Nb  Nb19      1.0  0.8840800327629595  0.6260859834094579  0.3769692535502507  1.0000
  Nb  Nb20      1.0  0.7451337280873818  0.5063499944821316  0.4947613739366208  1.0000
  W   W50       1.0  0.876150166628744  0.6243568146010637  0.6220147487735762  1.0000
  Nb  Nb21      1.0  0.7473282705482491  0.5009494948946267  0.7470301939938438  1.0000
  Nb  Nb22      1.0  0.8765014809931905  0.6237679156057531  0.8717466015788522  1.0000
  W   W51       1.0  0.7503462461869865  0.7511316354951802  0.9990552905589748  1.0000
  Ta  Ta42      1.0  0.8722067751582224  0.8721126022825226  0.1284473914495433  1.0000
  Ta  Ta43      1.0  0.7403160464981031  0.7427089794260556  0.257944007371402  1.0000
  Ta  Ta44      1.0  0.8761355958193106  0.87257963078902  0.374044290664839  1.0000
  Ta  Ta45      1.0  0.7409221655197431  0.7424102905778895  0.49593663407455163  1.0000
  Ta  Ta46      1.0  0.8742648717969305  0.8721071505040157  0.6222160547006099  1.0000
  Nb  Nb23      1.0  0.7493089968994371  0.7490061697049576  0.7492325888673556  1.0000
  Nb  Nb24      1.0  0.8746128946813798  0.8761925047291624  0.8756493957067023  1.0000
